<?xml version="1.0" encoding="UTF-8"?>

<!-- generated on 07/25/22 16:14:11 by Eclipse SUMO netconvert Version 1.8.0
<configuration xmlns:xsi="http://www.w3.org/2001/XMLSchema-instance" xsi:noNamespaceSchemaLocation="http://sumo.dlr.de/xsd/netconvertConfiguration.xsd">

    <input>
        <node-files value="D:\World\nnn\sumo.nod.xml"/>
        <edge-files value="D:\World\nnn\sumo.edg.xml"/>
    </input>

    <output>
        <output-file value="D:\World\nnn\sumo.net.xml"/>
    </output>

    <report>
        <aggregate-warnings value="5"/>
    </report>

</configuration>
-->

<net version="1.6" junctionCornerDetail="5" limitTurnSpeed="5.50" xmlns:xsi="http://www.w3.org/2001/XMLSchema-instance" xsi:noNamespaceSchemaLocation="http://sumo.dlr.de/xsd/net_file.xsd">

    <location netOffset="820.16,1254.94" convBoundary="0.00,0.00,2140.60,2456.94" origBoundary="-820.16,-1254.94,1320.45,1202.00" projParameter="!"/>

    <edge id=":1366247754_0" function="internal">
        <lane id=":1366247754_0_0" index="0" speed="5.56" length="6.34" width="4.00" shape="1097.23,1658.18 1096.88,1659.90 1097.18,1661.28 1098.12,1662.34 1099.72,1663.06"/>
    </edge>
    <edge id=":1366247754_1" function="internal">
        <lane id=":1366247754_1_0" index="0" speed="13.89" length="8.00" width="4.00" shape="1092.00,1660.95 1099.72,1663.06"/>
    </edge>
    <edge id=":4208770881_0" function="internal">
        <lane id=":4208770881_0_0" index="0" speed="7.31" length="8.75" width="3.50" shape="411.01,860.70 411.28,862.57 412.29,864.20 414.02,865.60 416.48,866.75"/>
    </edge>
    <edge id=":4208770881_1" function="internal">
        <lane id=":4208770881_1_0" index="0" speed="4.08" length="5.84" width="4.00" shape="411.01,860.70 409.93,862.14 408.91,862.59 407.93,862.04 407.01,860.49"/>
    </edge>
    <edge id=":4208770881_2" function="internal">
        <lane id=":4208770881_2_0" index="0" speed="4.60" length="4.82" width="4.00" shape="403.35,861.92 404.91,862.33 406.04,862.22 406.74,861.61 407.01,860.49"/>
    </edge>
    <edge id=":4208770881_3" function="internal">
        <lane id=":4208770881_3_0" index="0" speed="13.89" length="14.00" width="3.50" shape="403.35,861.92 416.48,866.75"/>
        <lane id=":4208770881_3_1" index="1" speed="13.89" length="14.00" width="3.50" shape="402.14,865.21 415.28,870.03"/>
        <lane id=":4208770881_3_2" index="2" speed="13.89" length="14.00" width="3.50" shape="400.92,868.49 414.08,873.32"/>
    </edge>
    <edge id=":5081769697_0" function="internal">
        <lane id=":5081769697_0_0" index="0" speed="7.50" length="9.09" width="3.50" shape="845.77,1022.65 846.10,1024.51 847.19,1026.17 849.04,1027.61 851.64,1028.83"/>
    </edge>
    <edge id=":5081769697_1" function="internal">
        <lane id=":5081769697_1_0" index="0" speed="9.00" length="13.47" width="3.50" shape="842.27,1022.52 842.72,1025.55 844.23,1028.16 846.79,1030.34 850.41,1032.11"/>
    </edge>
    <edge id=":5081769697_2" function="internal">
        <lane id=":5081769697_2_0" index="0" speed="9.65" length="15.64" width="3.50" shape="842.27,1022.52 842.61,1027.15 843.88,1030.83 846.07,1033.58 849.18,1035.38"/>
    </edge>
    <edge id=":5081769698_0" function="internal">
        <lane id=":5081769698_0_0" index="0" speed="5.18" length="6.60" width="3.50" shape="849.31,1047.00 847.45,1046.60 846.10,1046.95 845.28,1048.07 844.97,1049.96"/>
    </edge>
    <edge id=":5081769698_1" function="internal">
        <lane id=":5081769698_1_0" index="0" speed="7.13" length="13.78" width="3.50" shape="850.53,1043.72 846.64,1042.87 843.83,1043.61 842.11,1045.95 841.47,1049.89"/>
    </edge>
    <edge id=":5081770146_0" function="internal">
        <lane id=":5081770146_0_0" index="0" speed="5.00" length="4.71" width="3.50" shape="1266.88,1182.61 1266.83,1183.41 1267.32,1184.18 1268.36,1184.91 1269.94,1185.62"/>
    </edge>
    <edge id=":5081770146_1" function="internal">
        <lane id=":5081770146_1_0" index="0" speed="13.89" length="10.51" width="4.00" shape="1266.88,1182.61 1263.19,1192.44"/>
    </edge>
    <edge id=":5081770146_2" function="internal">
        <lane id=":5081770146_2_0" index="0" speed="13.89" length="8.00" width="3.50" shape="1262.45,1182.82 1269.94,1185.62"/>
        <lane id=":5081770146_2_1" index="1" speed="13.89" length="8.00" width="3.50" shape="1261.22,1186.10 1268.72,1188.90"/>
        <lane id=":5081770146_2_2" index="2" speed="13.89" length="8.00" width="3.50" shape="1259.99,1189.38 1267.50,1192.18"/>
    </edge>
    <edge id=":5081770146_5" function="internal">
        <lane id=":5081770146_5_0" index="0" speed="5.03" length="4.83" width="4.00" shape="1259.99,1189.38 1261.61,1190.10 1262.68,1190.85 1263.21,1191.63 1263.19,1192.44"/>
    </edge>
    <edge id=":5081770148_0" function="internal">
        <lane id=":5081770148_0_0" index="0" speed="5.03" length="5.01" width="4.00" shape="1264.15,1201.50 1262.49,1201.03 1261.20,1200.99 1260.29,1201.40 1259.75,1202.25"/>
    </edge>
    <edge id=":5081770148_1" function="internal">
        <lane id=":5081770148_1_0" index="0" speed="13.89" length="8.00" width="3.50" shape="1264.15,1201.50 1256.66,1198.70"/>
        <lane id=":5081770148_1_1" index="1" speed="13.89" length="8.00" width="3.50" shape="1265.38,1198.23 1257.88,1195.42"/>
    </edge>
    <edge id=":5081770148_3" function="internal">
        <lane id=":5081770148_3_0" index="0" speed="13.89" length="8.00" width="4.00" shape="1262.38,1194.69 1259.75,1202.25"/>
    </edge>
    <edge id=":5081770148_4" function="internal">
        <lane id=":5081770148_4_0" index="0" speed="5.17" length="5.09" width="3.50" shape="1262.38,1194.69 1261.81,1195.53 1260.87,1195.93 1259.56,1195.89 1257.88,1195.42"/>
    </edge>
    <edge id=":5081770150_0" function="internal">
        <lane id=":5081770150_0_0" index="0" speed="5.76" length="8.51" width="3.50" shape="826.30,1023.18 828.42,1023.57 829.95,1022.92 830.90,1021.23 831.27,1018.50"/>
    </edge>
    <edge id=":5081770150_1" function="internal">
        <lane id=":5081770150_1_0" index="0" speed="7.55" length="15.64" width="3.50" shape="825.06,1026.45 829.21,1027.30 832.20,1026.28 834.06,1023.40 834.76,1018.64"/>
    </edge>
    <edge id=":5171406329_0" function="internal">
        <lane id=":5171406329_0_0" index="0" speed="13.89" length="8.01" width="4.00" shape="403.00,1241.47 402.86,1249.48"/>
    </edge>
    <edge id=":5171406329_1" function="internal">
        <lane id=":5171406329_1_0" index="0" speed="6.32" length="4.01" width="4.00" shape="403.00,1241.47 402.60,1243.21 401.45,1244.45 400.95,1244.64"/>
    </edge>
    <edge id=":5171406329_2" function="internal">
        <lane id=":5171406329_2_0" index="0" speed="4.08" length="2.92" width="4.00" shape="403.00,1241.47 401.98,1242.95 400.97,1243.44"/>
    </edge>
    <edge id=":5171406329_6" function="internal">
        <lane id=":5171406329_6_0" index="0" speed="6.32" length="4.13" width="4.00" shape="400.95,1244.64 399.56,1245.17 396.93,1245.40"/>
    </edge>
    <edge id=":5171406329_7" function="internal">
        <lane id=":5171406329_7_0" index="0" speed="4.08" length="2.92" width="4.00" shape="400.97,1243.44 399.98,1242.92 399.00,1241.40"/>
    </edge>
    <edge id=":5171406329_3" function="internal">
        <lane id=":5171406329_3_0" index="0" speed="5.10" length="4.93" width="4.00" shape="398.86,1249.40 398.77,1247.65 398.42,1246.41 397.80,1245.65 396.93,1245.40"/>
    </edge>
    <edge id=":5171406329_4" function="internal">
        <lane id=":5171406329_4_0" index="0" speed="13.89" length="7.99" width="4.00" shape="398.86,1249.40 399.00,1241.40"/>
    </edge>
    <edge id=":5171406329_5" function="internal">
        <lane id=":5171406329_5_0" index="0" speed="4.08" length="2.92" width="4.00" shape="398.86,1249.40 399.89,1247.92 400.90,1247.44"/>
    </edge>
    <edge id=":5171406329_8" function="internal">
        <lane id=":5171406329_8_0" index="0" speed="4.08" length="2.92" width="4.00" shape="400.90,1247.44 401.89,1247.96 402.86,1249.48"/>
    </edge>
    <edge id=":7402406959_0" function="internal">
        <lane id=":7402406959_0_0" index="0" speed="13.89" length="0.19" width="4.00" shape="408.72,908.61 408.71,908.80"/>
    </edge>
    <edge id=":7402406959_1" function="internal">
        <lane id=":7402406959_1_0" index="0" speed="13.89" length="0.31" width="4.00" shape="404.71,908.73 404.73,908.41"/>
    </edge>
    <edge id=":7402406960_0" function="internal">
        <lane id=":7402406960_0_0" index="0" speed="13.89" length="0.30" width="4.00" shape="407.29,986.93 407.29,987.22"/>
    </edge>
    <edge id=":7402406960_1" function="internal">
        <lane id=":7402406960_1_0" index="0" speed="13.89" length="0.30" width="4.00" shape="403.29,987.16 403.29,986.85"/>
    </edge>
    <edge id=":7463666139_0" function="internal">
        <lane id=":7463666139_0_0" index="0" speed="5.13" length="4.87" width="3.50" shape="605.64,933.92 605.62,934.73 606.15,935.52 607.23,936.28 608.86,937.01"/>
    </edge>
    <edge id=":7463666139_1" function="internal">
        <lane id=":7463666139_1_0" index="0" speed="13.89" length="10.54" width="4.00" shape="605.64,933.92 604.61,936.79 603.81,938.86 602.92,940.89 601.64,943.66"/>
    </edge>
    <edge id=":7463666139_2" function="internal">
        <lane id=":7463666139_2_0" index="0" speed="13.89" length="8.00" width="3.50" shape="601.33,934.21 608.86,937.01"/>
        <lane id=":7463666139_2_1" index="1" speed="13.89" length="8.00" width="3.50" shape="600.13,937.50 607.62,940.29"/>
        <lane id=":7463666139_2_2" index="2" speed="13.89" length="8.00" width="3.50" shape="598.93,940.79 606.38,943.56"/>
    </edge>
    <edge id=":7463666139_5" function="internal">
        <lane id=":7463666139_5_0" index="0" speed="4.71" length="4.42" width="4.00" shape="598.93,940.79 600.40,941.44 601.34,942.14 601.75,942.88 601.64,943.66"/>
    </edge>
    <edge id=":8210174851_0" function="internal">
        <lane id=":8210174851_0_0" index="0" speed="5.45" length="5.43" width="4.00" shape="834.01,1592.27 834.11,1594.12 834.50,1595.49 835.18,1596.37 836.15,1596.76"/>
    </edge>
    <edge id=":8210174851_1" function="internal">
        <lane id=":8210174851_1_0" index="0" speed="13.89" length="8.00" width="3.50" shape="834.01,1592.27 833.85,1600.26"/>
        <lane id=":8210174851_1_1" index="1" speed="13.89" length="8.00" width="3.50" shape="830.51,1592.20 830.35,1600.20"/>
    </edge>
    <edge id=":8210174851_3" function="internal">
        <lane id=":8210174851_3_0" index="0" speed="13.89" length="8.00" width="4.00" shape="828.21,1595.71 836.15,1596.76"/>
    </edge>
    <edge id=":8210174851_4" function="internal">
        <lane id=":8210174851_4_0" index="0" speed="5.52" length="5.43" width="3.50" shape="828.21,1595.71 829.18,1596.10 829.85,1596.98 830.25,1598.35 830.35,1600.20"/>
    </edge>
    <edge id=":8210174852_0" function="internal">
        <lane id=":8210174852_0_0" index="0" speed="13.89" length="0.28" width="4.00" shape="888.58,1608.66 888.85,1608.73"/>
    </edge>
    <edge id=":8210174853_0" function="internal">
        <lane id=":8210174853_0_0" index="0" speed="13.89" length="0.10" width="4.00" shape="860.10,1600.73 860.10,1600.73"/>
    </edge>
    <edge id=":871077613_0" function="internal">
        <lane id=":871077613_0_0" index="0" speed="5.20" length="6.52" width="4.00" shape="414.06,884.13 412.27,883.75 410.95,884.13 410.12,885.25 409.77,887.14"/>
    </edge>
    <edge id=":871077613_1" function="internal">
        <lane id=":871077613_1_0" index="0" speed="13.89" length="14.14" width="3.50" shape="414.06,884.13 410.25,882.42 407.81,880.87 405.37,879.32 401.56,877.60"/>
        <lane id=":871077613_1_1" index="1" speed="13.89" length="14.14" width="3.50" shape="415.28,880.85 411.47,879.14 409.03,877.59 406.59,876.04 402.78,874.32"/>
    </edge>
    <edge id=":871077613_3" function="internal">
        <lane id=":871077613_3_0" index="0" speed="7.31" length="8.73" width="3.50" shape="405.77,886.94 405.51,885.08 404.51,883.45 402.79,882.05 400.33,880.88"/>
    </edge>
    <edge id=":871077613_4" function="internal">
        <lane id=":871077613_4_0" index="0" speed="4.08" length="5.84" width="4.00" shape="405.77,886.94 406.85,885.49 407.87,885.04 408.84,885.59 409.77,887.14"/>
    </edge>
    <edge id=":871077623_0" function="internal">
        <lane id=":871077623_0_0" index="0" speed="13.89" length="8.00" width="3.50" shape="818.67,1598.67 818.82,1590.65"/>
        <lane id=":871077623_0_1" index="1" speed="13.89" length="8.00" width="3.50" shape="822.17,1598.72 822.32,1590.73"/>
    </edge>
    <edge id=":871077623_2" function="internal">
        <lane id=":871077623_2_0" index="0" speed="4.82" length="4.78" width="4.00" shape="822.17,1598.72 822.33,1597.08 822.77,1595.94 823.47,1595.32 824.45,1595.21"/>
    </edge>
    <edge id=":871077658_0" function="internal">
        <lane id=":871077658_0_0" index="0" speed="5.83" length="6.53" width="4.00" shape="586.27,889.49 585.94,891.24 586.23,892.70 587.15,893.86 588.70,894.74"/>
    </edge>
    <edge id=":871077658_1" function="internal">
        <lane id=":871077658_1_0" index="0" speed="13.89" length="8.00" width="4.00" shape="581.23,891.88 588.70,894.74"/>
    </edge>
    <edge id=":871077670_0" function="internal">
        <lane id=":871077670_0_0" index="0" speed="7.87" length="10.09" width="3.50" shape="830.69,1045.66 830.41,1043.02 829.44,1040.84 827.78,1039.13 825.43,1037.89"/>
    </edge>
    <edge id=":871077670_1" function="internal">
        <lane id=":871077670_1_0" index="0" speed="9.30" length="14.44" width="3.50" shape="834.19,1045.74 833.79,1041.95 832.40,1038.84 830.02,1036.39 826.65,1034.61"/>
    </edge>
    <edge id=":871077671_0" function="internal">
        <lane id=":871077671_0_0" index="0" speed="13.89" length="8.00" width="4.00" shape="612.02,903.96 619.50,906.79"/>
    </edge>
    <edge id=":871077671_1" function="internal">
        <lane id=":871077671_1_0" index="0" speed="5.80" length="6.52" width="4.00" shape="612.02,903.96 613.57,904.84 614.48,906.01 614.76,907.47 614.41,909.21"/>
    </edge>
    <edge id=":871077684_0" function="internal">
        <lane id=":871077684_0_0" index="0" speed="6.36" length="6.84" width="4.00" shape="624.26,908.51 626.04,908.90 627.63,908.69 629.01,907.90 630.21,906.52"/>
    </edge>
    <edge id=":871077684_1" function="internal">
        <lane id=":871077684_1_0" index="0" speed="13.89" length="8.00" width="4.00" shape="624.26,908.51 631.77,911.27"/>
    </edge>
    <edge id=":871077720_0" function="internal">
        <lane id=":871077720_0_0" index="0" speed="13.89" length="8.00" width="3.50" shape="601.39,953.91 593.90,951.11"/>
        <lane id=":871077720_0_1" index="1" speed="13.89" length="8.00" width="3.50" shape="602.62,950.63 595.12,947.83"/>
    </edge>
    <edge id=":871077720_2" function="internal">
        <lane id=":871077720_2_0" index="0" speed="5.43" length="5.35" width="3.50" shape="599.96,947.24 599.30,948.04 598.27,948.41 596.88,948.33 595.12,947.83"/>
    </edge>
    <edge id=":8984639070_0" function="internal">
        <lane id=":8984639070_0_0" index="0" speed="13.89" length="8.00" width="4.00" shape="602.31,1518.05 595.94,1513.21"/>
    </edge>
    <edge id=":8984639070_1" function="internal">
        <lane id=":8984639070_1_0" index="0" speed="4.51" length="1.40" width="4.00" shape="599.18,1511.63 598.98,1513.01"/>
    </edge>
    <edge id=":8984639070_2" function="internal">
        <lane id=":8984639070_2_0" index="0" speed="4.51" length="3.84" width="4.00" shape="598.98,1513.01 598.95,1513.22 598.34,1514.02 597.33,1514.01 595.94,1513.21"/>
    </edge>
    <edge id=":8984639072_0" function="internal">
        <lane id=":8984639072_0_0" index="0" speed="13.89" length="8.00" width="4.00" shape="604.40,1224.61 604.26,1232.61"/>
    </edge>
    <edge id=":8984639072_1" function="internal">
        <lane id=":8984639072_1_0" index="0" speed="5.67" length="2.01" width="4.00" shape="600.37,1228.56 602.11,1228.83 602.32,1228.96"/>
    </edge>
    <edge id=":8984639072_2" function="internal">
        <lane id=":8984639072_2_0" index="0" speed="5.67" length="4.41" width="4.00" shape="602.32,1228.96 603.34,1229.60 604.06,1230.85 604.26,1232.61"/>
    </edge>
    <edge id=":8984639077_0" function="internal">
        <lane id=":8984639077_0_0" index="0" speed="5.76" length="6.49" width="4.00" shape="741.94,1206.67 741.70,1204.92 740.95,1203.65 739.70,1202.87 737.95,1202.58"/>
    </edge>
    <edge id=":8984639077_1" function="internal">
        <lane id=":8984639077_1_0" index="0" speed="13.89" length="8.00" width="4.00" shape="741.94,1206.67 742.07,1198.67"/>
    </edge>
    <edge id=":8984639077_2" function="internal">
        <lane id=":8984639077_2_0" index="0" speed="13.89" length="8.00" width="4.00" shape="745.95,1202.76 737.95,1202.58"/>
    </edge>
    <edge id=":8984639077_3" function="internal">
        <lane id=":8984639077_3_0" index="0" speed="5.69" length="1.99" width="4.00" shape="745.95,1202.76 744.21,1202.47 744.01,1202.35"/>
    </edge>
    <edge id=":8984639077_4" function="internal">
        <lane id=":8984639077_4_0" index="0" speed="5.69" length="4.44" width="4.00" shape="744.01,1202.35 742.98,1201.69 742.27,1200.43 742.07,1198.67"/>
    </edge>
    <edge id=":8984639087_0" function="internal">
        <lane id=":8984639087_0_0" index="0" speed="13.89" length="8.00" width="4.00" shape="582.89,1034.43 590.51,1032.02"/>
    </edge>
    <edge id=":8984639087_1" function="internal">
        <lane id=":8984639087_1_0" index="0" speed="5.07" length="5.90" width="4.00" shape="582.89,1034.43 584.56,1034.17 585.75,1034.56 586.47,1035.59 586.70,1037.27"/>
    </edge>
    <edge id=":8984639093_0" function="internal">
        <lane id=":8984639093_0_0" index="0" speed="13.89" length="8.00" width="4.00" shape="443.29,1224.80 435.29,1224.65"/>
    </edge>
    <edge id=":8984639093_1" function="internal">
        <lane id=":8984639093_1_0" index="0" speed="5.82" length="6.48" width="4.00" shape="443.29,1224.80 441.56,1224.50 440.30,1223.73 439.53,1222.46 439.24,1220.72"/>
    </edge>
    <edge id=":8984639094_0" function="internal">
        <lane id=":8984639094_0_0" index="0" speed="5.65" length="6.41" width="4.00" shape="585.76,1224.53 585.98,1226.28 586.70,1227.52 587.93,1228.27 589.68,1228.51"/>
    </edge>
    <edge id=":8984639094_1" function="internal">
        <lane id=":8984639094_1_0" index="0" speed="5.70" length="2.93" width="4.00" shape="585.76,1224.53 585.48,1226.27 584.85,1227.26"/>
    </edge>
    <edge id=":8984639094_4" function="internal">
        <lane id=":8984639094_4_0" index="0" speed="5.70" length="3.51" width="4.00" shape="584.85,1227.26 584.70,1227.50 583.43,1228.22 581.68,1228.42"/>
    </edge>
    <edge id=":8984639094_2" function="internal">
        <lane id=":8984639094_2_0" index="0" speed="5.73" length="6.46" width="4.00" shape="585.60,1232.52 585.38,1230.77 584.66,1229.50 583.42,1228.72 581.68,1228.42"/>
    </edge>
    <edge id=":8984639094_3" function="internal">
        <lane id=":8984639094_3_0" index="0" speed="5.77" length="2.98" width="4.00" shape="585.60,1232.52 585.88,1230.77 586.52,1229.75"/>
    </edge>
    <edge id=":8984639094_5" function="internal">
        <lane id=":8984639094_5_0" index="0" speed="5.77" length="3.51" width="4.00" shape="586.52,1229.75 586.66,1229.52 587.92,1228.77 589.68,1228.51"/>
    </edge>
    <edge id=":8984639096_0" function="internal">
        <lane id=":8984639096_0_0" index="0" speed="5.60" length="6.24" width="4.00" shape="590.27,1198.80 588.52,1198.98 587.26,1199.64 586.49,1200.79 586.21,1202.44"/>
    </edge>
    <edge id=":8984639096_1" function="internal">
        <lane id=":8984639096_1_0" index="0" speed="13.89" length="8.00" width="4.00" shape="586.30,1194.44 586.21,1202.44"/>
    </edge>
    <edge id=":8984639102_0" function="internal">
        <lane id=":8984639102_0_0" index="0" speed="6.21" length="6.77" width="4.00" shape="801.26,1219.87 799.46,1220.09 798.07,1220.81 797.07,1222.03 796.48,1223.74"/>
    </edge>
    <edge id=":8984639102_1" function="internal">
        <lane id=":8984639102_1_0" index="0" speed="6.53" length="6.93" width="4.00" shape="801.26,1219.87 799.44,1219.60 797.99,1218.87 796.91,1217.65 796.19,1215.96"/>
    </edge>
    <edge id=":8984639103_0" function="internal">
        <lane id=":8984639103_0_0" index="0" speed="5.10" length="5.09" width="4.00" shape="826.81,1224.16 826.71,1222.42 826.31,1221.17 825.63,1220.41 824.65,1220.15"/>
    </edge>
    <edge id=":8984639103_1" function="internal">
        <lane id=":8984639103_1_0" index="0" speed="13.89" length="8.00" width="3.50" shape="826.81,1224.16 826.98,1216.17"/>
        <lane id=":8984639103_1_1" index="1" speed="13.89" length="8.00" width="3.50" shape="830.31,1224.24 830.48,1216.24"/>
    </edge>
    <edge id=":9040295924_0" function="internal">
        <lane id=":9040295924_0_0" index="0" speed="13.89" length="8.00" width="4.00" shape="1151.62,853.53 1154.36,846.01"/>
    </edge>
    <edge id=":9040295924_1" function="internal">
        <lane id=":9040295924_1_0" index="0" speed="5.72" length="6.46" width="4.00" shape="1151.62,853.53 1152.45,851.97 1153.59,851.05 1155.02,850.77 1156.75,851.13"/>
    </edge>
    <edge id=":9040295944_0" function="internal">
        <lane id=":9040295944_0_0" index="0" speed="5.66" length="6.41" width="4.00" shape="1068.21,1072.98 1069.92,1073.36 1071.35,1073.10 1072.47,1072.19 1073.29,1070.63"/>
    </edge>
    <edge id=":9040295944_1" function="internal">
        <lane id=":9040295944_1_0" index="0" speed="13.89" length="8.00" width="4.00" shape="1068.21,1072.98 1075.66,1075.87"/>
    </edge>
    <edge id=":9040295944_2" function="internal">
        <lane id=":9040295944_2_0" index="0" speed="13.89" length="8.00" width="4.00" shape="1070.60,1078.17 1073.29,1070.63"/>
    </edge>
    <edge id=":9040295944_3" function="internal">
        <lane id=":9040295944_3_0" index="0" speed="5.63" length="2.02" width="4.00" shape="1070.60,1078.17 1071.42,1076.61 1071.62,1076.45"/>
    </edge>
    <edge id=":9040295944_4" function="internal">
        <lane id=":9040295944_4_0" index="0" speed="5.63" length="4.37" width="4.00" shape="1071.62,1076.45 1072.54,1075.71 1073.95,1075.46 1075.66,1075.87"/>
    </edge>
    <edge id=":9040295955_0" function="internal">
        <lane id=":9040295955_0_0" index="0" speed="5.05" length="5.87" width="4.00" shape="898.56,888.40 896.91,888.05 895.70,888.37 894.95,889.36 894.64,891.02"/>
    </edge>
    <edge id=":9040295955_1" function="internal">
        <lane id=":9040295955_1_0" index="0" speed="13.89" length="8.00" width="4.00" shape="894.95,883.03 894.64,891.02"/>
    </edge>
    <edge id=":9040295956_0" function="internal">
        <lane id=":9040295956_0_0" index="0" speed="5.70" length="6.44" width="4.00" shape="1109.57,969.13 1109.93,967.40 1109.64,965.97 1108.71,964.85 1107.14,964.04"/>
    </edge>
    <edge id=":9040295956_1" function="internal">
        <lane id=":9040295956_1_0" index="0" speed="13.89" length="8.00" width="4.00" shape="1109.57,969.13 1112.29,961.60"/>
    </edge>
    <edge id=":9040296011_0" function="internal">
        <lane id=":9040296011_0_0" index="0" speed="4.94" length="4.71" width="4.00" shape="1056.60,1105.66 1058.25,1106.16 1059.52,1106.29 1060.39,1106.03 1060.88,1105.40"/>
    </edge>
    <edge id=":9040296011_1" function="internal">
        <lane id=":9040296011_1_0" index="0" speed="13.89" length="8.00" width="3.50" shape="1056.60,1105.66 1064.09,1108.47"/>
        <lane id=":9040296011_1_1" index="1" speed="13.89" length="8.00" width="3.50" shape="1055.37,1108.94 1062.86,1111.74"/>
        <lane id=":9040296011_1_2" index="2" speed="13.89" length="8.00" width="3.50" shape="1054.14,1112.21 1061.63,1115.02"/>
    </edge>
    <edge id=":9523599677_0" function="internal">
        <lane id=":9523599677_0_0" index="0" speed="13.89" length="7.99" width="4.00" shape="398.57,1477.98 398.45,1485.96"/>
    </edge>
    <edge id=":9523599677_1" function="internal">
        <lane id=":9523599677_1_0" index="0" speed="4.08" length="2.92" width="4.00" shape="398.57,1477.98 397.54,1479.46 396.53,1479.94"/>
    </edge>
    <edge id=":9523599677_6" function="internal">
        <lane id=":9523599677_6_0" index="0" speed="4.08" length="2.92" width="4.00" shape="396.53,1479.94 395.54,1479.43 394.57,1477.91"/>
    </edge>
    <edge id=":9523599677_2" function="internal">
        <lane id=":9523599677_2_0" index="0" speed="5.09" length="4.91" width="4.00" shape="392.48,1481.80 393.37,1481.59 394.01,1480.87 394.41,1479.64 394.57,1477.91"/>
    </edge>
    <edge id=":9523599677_3" function="internal">
        <lane id=":9523599677_3_0" index="0" speed="6.36" length="8.16" width="4.00" shape="392.48,1481.80 395.11,1482.14 396.98,1482.95 398.10,1484.22 398.45,1485.96"/>
    </edge>
    <edge id=":9523599677_4" function="internal">
        <lane id=":9523599677_4_0" index="0" speed="13.89" length="8.01" width="4.00" shape="394.45,1485.92 394.57,1477.91"/>
    </edge>
    <edge id=":9523599677_5" function="internal">
        <lane id=":9523599677_5_0" index="0" speed="4.08" length="2.92" width="4.00" shape="394.45,1485.92 395.47,1484.43 396.48,1483.94"/>
    </edge>
    <edge id=":9523599677_7" function="internal">
        <lane id=":9523599677_7_0" index="0" speed="4.08" length="2.92" width="4.00" shape="396.48,1483.94 397.47,1484.45 398.45,1485.96"/>
    </edge>
    <edge id=":9536589400_0" function="internal">
        <lane id=":9536589400_0_0" index="0" speed="6.04" length="6.93" width="4.00" shape="223.14,1243.23 221.34,1243.48 220.00,1244.27 219.12,1245.62 218.69,1247.52"/>
    </edge>
    <edge id=":9536589400_1" function="internal">
        <lane id=":9536589400_1_0" index="0" speed="5.60" length="6.20" width="4.00" shape="223.14,1243.23 221.36,1242.98 220.11,1242.28 219.37,1241.13 219.15,1239.54"/>
    </edge>
    <edge id=":9536906820_0" function="internal">
        <lane id=":9536906820_0_0" index="0" speed="5.74" length="6.47" width="4.00" shape="436.74,1135.57 438.50,1135.34 439.77,1134.61 440.56,1133.38 440.86,1131.63"/>
    </edge>
    <edge id=":9536906820_1" function="internal">
        <lane id=":9536906820_1_0" index="0" speed="13.89" length="8.00" width="4.00" shape="440.66,1139.63 440.86,1131.63"/>
    </edge>
    <edge id=":9536906821_0" function="internal">
        <lane id=":9536906821_0_0" index="0" speed="5.12" length="4.94" width="4.00" shape="404.86,1131.07 404.96,1132.82 405.31,1134.08 405.93,1134.84 406.80,1135.10"/>
    </edge>
    <edge id=":9536906821_1" function="internal">
        <lane id=":9536906821_1_0" index="0" speed="13.89" length="8.00" width="4.00" shape="404.86,1131.07 404.73,1139.07"/>
    </edge>
    <edge id=":9536906821_2" function="internal">
        <lane id=":9536906821_2_0" index="0" speed="4.08" length="2.92" width="4.00" shape="404.86,1131.07 403.84,1132.55 402.83,1133.04"/>
    </edge>
    <edge id=":9536906821_6" function="internal">
        <lane id=":9536906821_6_0" index="0" speed="4.08" length="2.92" width="4.00" shape="402.83,1133.04 401.84,1132.52 400.86,1131.00"/>
    </edge>
    <edge id=":9536906821_3" function="internal">
        <lane id=":9536906821_3_0" index="0" speed="13.89" length="8.00" width="4.00" shape="400.73,1139.00 400.86,1131.00"/>
    </edge>
    <edge id=":9536906821_4" function="internal">
        <lane id=":9536906821_4_0" index="0" speed="6.30" length="4.01" width="4.00" shape="400.73,1139.00 401.13,1137.26 402.28,1136.03 402.78,1135.84"/>
    </edge>
    <edge id=":9536906821_5" function="internal">
        <lane id=":9536906821_5_0" index="0" speed="4.08" length="2.92" width="4.00" shape="400.73,1139.00 401.75,1137.52 402.76,1137.04"/>
    </edge>
    <edge id=":9536906821_7" function="internal">
        <lane id=":9536906821_7_0" index="0" speed="6.30" length="4.12" width="4.00" shape="402.78,1135.84 404.17,1135.31 406.80,1135.10"/>
    </edge>
    <edge id=":9536906821_8" function="internal">
        <lane id=":9536906821_8_0" index="0" speed="4.08" length="2.92" width="4.00" shape="402.76,1137.04 403.75,1137.55 404.73,1139.07"/>
    </edge>
    <edge id=":9536906822_0" function="internal">
        <lane id=":9536906822_0_0" index="0" speed="5.76" length="6.49" width="4.00" shape="437.76,1100.47 439.52,1100.23 440.79,1099.49 441.58,1098.25 441.88,1096.50"/>
    </edge>
    <edge id=":9536906822_1" function="internal">
        <lane id=":9536906822_1_0" index="0" speed="13.89" length="8.00" width="4.00" shape="441.65,1104.50 441.88,1096.50"/>
    </edge>
    <edge id=":9536906823_0" function="internal">
        <lane id=":9536906823_0_0" index="0" speed="5.11" length="4.93" width="4.00" shape="405.45,1096.19 405.54,1097.93 405.90,1099.18 406.51,1099.93 407.39,1100.19"/>
    </edge>
    <edge id=":9536906823_1" function="internal">
        <lane id=":9536906823_1_0" index="0" speed="13.89" length="8.00" width="4.00" shape="405.45,1096.19 405.31,1104.18"/>
    </edge>
    <edge id=":9536906823_2" function="internal">
        <lane id=":9536906823_2_0" index="0" speed="4.08" length="2.92" width="4.00" shape="405.45,1096.19 404.42,1097.67 403.41,1098.15"/>
    </edge>
    <edge id=":9536906823_6" function="internal">
        <lane id=":9536906823_6_0" index="0" speed="4.08" length="2.92" width="4.00" shape="403.41,1098.15 402.42,1097.63 401.45,1096.11"/>
    </edge>
    <edge id=":9536906823_3" function="internal">
        <lane id=":9536906823_3_0" index="0" speed="13.89" length="8.00" width="4.00" shape="401.31,1104.11 401.45,1096.11"/>
    </edge>
    <edge id=":9536906823_4" function="internal">
        <lane id=":9536906823_4_0" index="0" speed="6.32" length="4.01" width="4.00" shape="401.31,1104.11 401.72,1102.37 402.86,1101.14 403.37,1100.95"/>
    </edge>
    <edge id=":9536906823_5" function="internal">