<?xml version="1.0" encoding="UTF-8"?>

<!-- generated on 07/14/22 13:57:42 by Eclipse SUMO netedit Version 1.8.0
<configuration xmlns:xsi="http://www.w3.org/2001/XMLSchema-instance" xsi:noNamespaceSchemaLocation="http://sumo.dlr.de/xsd/netconvertConfiguration.xsd">

    <input>
        <sumo-net-file value="D:\World\newone\latestmap_net\sumo.net.xml"/>
    </input>

    <output>
        <output-file value="D:\World\newone\latestmap_net\sumo.net.xml"/>
    </output>

    <processing>
        <geometry.min-radius.fix.railways value="false"/>
        <geometry.max-grade.fix value="false"/>
        <offset.disable-normalization value="true"/>
        <lefthand value="false"/>
    </processing>

    <junctions>
        <no-turnarounds value="true"/>
        <junctions.corner-detail value="5"/>
        <junctions.limit-turn-speed value="5.5"/>
        <rectangular-lane-cut value="false"/>
    </junctions>

    <pedestrian>
        <walkingareas value="false"/>
    </pedestrian>

    <report>
        <aggregate-warnings value="5"/>
    </report>

</configuration>
-->

<net version="1.6" junctionCornerDetail="5" limitTurnSpeed="5.50" xmlns:xsi="http://www.w3.org/2001/XMLSchema-instance" xsi:noNamespaceSchemaLocation="http://sumo.dlr.de/xsd/net_file.xsd">

    <location netOffset="820.16,1254.94" convBoundary="0.00,0.00,2140.60,2456.94" origBoundary="-820.16,-1254.94,1320.45,1202.00" projParameter="!"/>

    <edge id=":1366247754_0" function="internal">
        <lane id=":1366247754_0_0" index="0" speed="5.56" length="6.34" width="4.00" shape="1097.22,1658.18 1096.87,1659.90 1097.17,1661.28 1098.12,1662.34 1099.73,1663.06"/>
    </edge>
    <edge id=":1366247754_1" function="internal">
        <lane id=":1366247754_1_0" index="0" speed="13.89" length="8.00" width="4.00" shape="1092.01,1660.95 1099.73,1663.06"/>
    </edge>
    <edge id=":4208770881_0" function="internal">
        <lane id=":4208770881_0_0" index="0" speed="7.31" length="8.75" width="3.50" shape="411.01,860.70 411.28,862.57 412.29,864.21 414.02,865.60 416.48,866.75"/>
    </edge>
    <edge id=":4208770881_1" function="internal">
        <lane id=":4208770881_1_0" index="0" speed="4.08" length="5.84" width="4.00" shape="411.01,860.70 409.93,862.15 408.91,862.59 407.93,862.04 407.01,860.49"/>
    </edge>
    <edge id=":4208770881_2" function="internal">
        <lane id=":4208770881_2_0" index="0" speed="4.60" length="4.82" width="4.00" shape="403.35,861.92 404.91,862.32 406.04,862.22 406.74,861.61 407.01,860.49"/>
    </edge>
    <edge id=":4208770881_3" function="internal">
        <lane id=":4208770881_3_0" index="0" speed="13.89" length="14.00" width="3.50" shape="403.35,861.92 416.48,866.75"/>
        <lane id=":4208770881_3_1" index="1" speed="13.89" length="14.00" width="3.50" shape="402.14,865.21 415.28,870.04"/>
        <lane id=":4208770881_3_2" index="2" speed="13.89" length="14.00" width="3.50" shape="400.93,868.49 414.08,873.33"/>
    </edge>
    <edge id=":5081769697_0" function="internal">
        <lane id=":5081769697_0_0" index="0" speed="8.48" length="11.88" width="3.50" shape="845.82,1020.46 846.19,1023.30 847.45,1025.71 849.59,1027.67 852.62,1029.19"/>
    </edge>
    <edge id=":5081769697_1" function="internal">
        <lane id=":5081769697_1_0" index="0" speed="9.83" length="16.23" width="3.50" shape="842.32,1020.38 842.81,1024.37 844.49,1027.71 847.35,1030.41 851.39,1032.47"/>
    </edge>
    <edge id=":5081769697_2" function="internal">
        <lane id=":5081769697_2_0" index="0" speed="13.89" length="17.81" shape="842.32,1020.38 842.14,1025.77 842.10,1029.74 841.97,1033.42 845.26,1036.86"/>
    </edge>
    <edge id=":5081769697_3" function="internal">
        <lane id=":5081769697_3_0" index="0" speed="13.89" length="16.27" width="3.50" shape="837.29,1023.68 852.62,1029.19"/>
        <lane id=":5081769697_3_1" index="1" speed="13.89" length="16.27" width="3.50" shape="836.18,1026.68 851.39,1032.47"/>
        <lane id=":5081769697_3_2" index="2" speed="13.89" length="16.27" width="3.50" shape="835.07,1029.68 850.16,1035.75"/>
    </edge>
    <edge id=":5081769697_6" function="internal">
        <lane id=":5081769697_6_0" index="0" speed="7.98" length="10.61" shape="835.07,1029.68 838.21,1031.17 840.41,1032.85 841.70,1034.73 842.06,1036.79"/>
    </edge>
    <edge id=":5081769698_0" function="internal">
        <lane id=":5081769698_0_0" index="0" speed="6.02" length="9.41" width="3.50" shape="851.12,1047.68 848.46,1047.10 846.54,1047.61 845.37,1049.21 844.93,1051.89"/>
    </edge>
    <edge id=":5081769698_1" function="internal">
        <lane id=":5081769698_1_0" index="0" speed="13.89" length="14.82" shape="851.12,1047.68 837.18,1042.62"/>
        <lane id=":5081769698_1_1" index="1" speed="13.89" length="14.82" shape="852.34,1044.40 838.31,1039.63"/>
    </edge>
    <edge id=":5081769698_3" function="internal">
        <lane id=":5081769698_3_0" index="0" speed="13.89" length="14.87" width="3.50" shape="845.25,1037.06 845.28,1041.58 845.51,1044.85 845.48,1047.79 844.93,1051.89"/>
        <lane id=":5081769698_3_1" index="1" speed="13.89" length="14.87" width="3.50" shape="842.05,1036.99 841.64,1041.49 841.60,1044.42 841.52,1047.58 841.43,1051.82"/>
    </edge>
    <edge id=":5081769698_5" function="internal">
        <lane id=":5081769698_5_0" index="0" speed="4.87" length="2.15" shape="842.05,1036.99 841.75,1038.66 841.49,1039.02"/>
    </edge>
    <edge id=":5081769698_6" function="internal">
        <lane id=":5081769698_6_0" index="0" speed="4.87" length="3.58" shape="841.49,1039.02 841.02,1039.66 839.88,1039.98 838.31,1039.63"/>
    </edge>
    <edge id=":5081770146_0" function="internal">
        <lane id=":5081770146_0_0" index="0" speed="5.00" length="4.71" width="3.50" shape="1266.88,1182.61 1266.83,1183.41 1267.33,1184.18 1268.36,1184.91 1269.93,1185.62"/>
    </edge>
    <edge id=":5081770146_1" function="internal">
        <lane id=":5081770146_1_0" index="0" speed="13.89" length="10.50" width="4.00" shape="1266.88,1182.61 1263.18,1192.44"/>
    </edge>
    <edge id=":5081770146_2" function="internal">
        <lane id=":5081770146_2_0" index="0" speed="13.89" length="8.00" width="3.50" shape="1262.45,1182.82 1269.93,1185.62"/>
        <lane id=":5081770146_2_1" index="1" speed="13.89" length="8.00" width="3.50" shape="1261.22,1186.09 1268.72,1188.90"/>
        <lane id=":5081770146_2_2" index="2" speed="13.89" length="8.00" width="3.50" shape="1259.99,1189.37 1267.50,1192.18"/>
    </edge>
    <edge id=":5081770146_5" function="internal">
        <lane id=":5081770146_5_0" index="0" speed="5.03" length="4.83" width="4.00" shape="1259.99,1189.37 1261.61,1190.09 1262.68,1190.85 1263.21,1191.63 1263.18,1192.44"/>
    </edge>
    <edge id=":5081770148_0" function="internal">
        <lane id=":5081770148_0_0" index="0" speed="5.03" length="5.02" width="4.00" shape="1264.15,1201.50 1262.49,1201.03 1261.20,1200.99 1260.29,1201.40 1259.75,1202.25"/>
    </edge>
    <edge id=":5081770148_1" function="internal">
        <lane id=":5081770148_1_0" index="0" speed="13.89" length="8.00" width="3.50" shape="1264.15,1201.50 1256.66,1198.70"/>
        <lane id=":5081770148_1_1" index="1" speed="13.89" length="8.00" width="3.50" shape="1265.38,1198.23 1257.88,1195.42"/>
    </edge>
    <edge id=":5081770148_3" function="internal">
        <lane id=":5081770148_3_0" index="0" speed="13.89" length="8.00" width="4.00" shape="1262.37,1194.69 1259.75,1202.25"/>
    </edge>
    <edge id=":5081770148_4" function="internal">
        <lane id=":5081770148_4_0" index="0" speed="5.17" length="5.09" width="3.50" shape="1262.37,1194.69 1261.80,1195.53 1260.87,1195.93 1259.56,1195.90 1257.88,1195.42"/>
    </edge>
    <edge id=":5081770150_0" function="internal">
        <lane id=":5081770150_0_0" index="0" speed="6.02" length="9.41" width="3.50" shape="825.15,1018.92 827.81,1019.52 829.73,1019.03 830.91,1017.43 831.36,1014.75"/>
    </edge>
    <edge id=":5081770150_1" function="internal">
        <lane id=":5081770150_1_0" index="0" speed="13.89" length="8.09" shape="825.15,1018.92 832.70,1021.89"/>
        <lane id=":5081770150_1_1" index="1" speed="13.89" length="8.09" shape="823.91,1022.20 831.54,1024.87"/>
        <lane id=":5081770150_1_2" index="2" speed="13.89" length="8.09" shape="822.68,1025.47 830.38,1027.86"/>
    </edge>
    <edge id=":5081770150_4" function="internal">
        <lane id=":5081770150_4_0" index="0" speed="13.89" length="8.24" width="3.50" shape="830.96,1022.98 831.08,1020.16 831.36,1014.75"/>
    </edge>
    <edge id=":5081770150_5" function="internal">
        <lane id=":5081770150_5_0" index="0" speed="4.27" length="4.17" shape="834.28,1023.04 834.09,1024.24 833.57,1024.94 832.72,1025.15 831.54,1024.87"/>
    </edge>
    <edge id=":5081770150_6" function="internal">
        <lane id=":5081770150_6_0" index="0" speed="5.44" length="7.61" shape="834.28,1023.04 834.00,1025.70 833.25,1027.39 832.05,1028.11 830.38,1027.86"/>
    </edge>
    <edge id=":5081770150_7" function="internal">
        <lane id=":5081770150_7_0" index="0" speed="13.89" length="8.22" width="3.50" shape="834.79,1023.05 834.79,1020.11 834.86,1014.83"/>
    </edge>
    <edge id=":5171406329_0" function="internal">
        <lane id=":5171406329_0_0" index="0" speed="13.89" length="8.00" width="4.00" shape="403.00,1241.48 402.86,1249.47"/>
    </edge>
    <edge id=":5171406329_1" function="internal">
        <lane id=":5171406329_1_0" index="0" speed="6.31" length="4.01" width="4.00" shape="403.00,1241.48 402.59,1243.22 401.45,1244.45 400.94,1244.64"/>
    </edge>
    <edge id=":5171406329_2" function="internal">
        <lane id=":5171406329_2_0" index="0" speed="4.08" length="2.92" width="4.00" shape="403.00,1241.48 401.97,1242.96 400.96,1243.44"/>
    </edge>
    <edge id=":5171406329_6" function="internal">
        <lane id=":5171406329_6_0" index="0" speed="6.31" length="4.12" width="4.00" shape="400.94,1244.64 399.56,1245.18 396.93,1245.40"/>
    </edge>
    <edge id=":5171406329_7" function="internal">
        <lane id=":5171406329_7_0" index="0" speed="4.08" length="2.92" width="4.00" shape="400.96,1243.44 399.97,1242.92 399.00,1241.40"/>
    </edge>
    <edge id=":5171406329_3" function="internal">
        <lane id=":5171406329_3_0" index="0" speed="5.10" length="4.92" width="4.00" shape="398.86,1249.40 398.77,1247.66 398.42,1246.41 397.80,1245.66 396.93,1245.40"/>
    </edge>
    <edge id=":5171406329_4" function="internal">
        <lane id=":5171406329_4_0" index="0" speed="13.89" length="7.99" width="4.00" shape="398.86,1249.40 399.00,1241.40"/>
    </edge>
    <edge id=":5171406329_5" function="internal">
        <lane id=":5171406329_5_0" index="0" speed="4.08" length="2.92" width="4.00" shape="398.86,1249.40 399.89,1247.92 400.90,1247.44"/>
    </edge>
    <edge id=":5171406329_8" function="internal">
        <lane id=":5171406329_8_0" index="0" speed="4.08" length="2.92" width="4.00" shape="400.90,1247.44 401.89,1247.95 402.86,1249.47"/>
    </edge>
    <edge id=":7402406959_0" function="internal">
        <lane id=":7402406959_0_0" index="0" speed="13.89" length="0.19" width="4.00" shape="408.72,908.61 408.72,908.80"/>
    </edge>
    <edge id=":7402406959_1" function="internal">
        <lane id=":7402406959_1_0" index="0" speed="13.89" length="0.31" width="4.00" shape="404.72,908.73 404.73,908.42"/>
    </edge>
    <edge id=":7402406960_0" function="internal">
        <lane id=":7402406960_0_0" index="0" speed="13.89" length="0.30" width="4.00" shape="407.29,986.93 407.29,987.22"/>
    </edge>
    <edge id=":7402406960_1" function="internal">
        <lane id=":7402406960_1_0" index="0" speed="13.89" length="0.30" width="4.00" shape="403.29,987.16 403.29,986.85"/>
    </edge>
    <edge id=":7463666139_0" function="internal">
        <lane id=":7463666139_0_0" index="0" speed="5.13" length="4.87" width="3.50" shape="605.63,933.92 605.62,934.73 606.15,935.52 607.23,936.28 608.86,937.02"/>
    </edge>
    <edge id=":7463666139_1" function="internal">
        <lane id=":7463666139_1_0" index="0" speed="13.89" length="10.53" width="4.00" shape="605.63,933.92 604.60,936.79 603.81,938.86 602.93,940.89 601.64,943.66"/>
    </edge>
    <edge id=":7463666139_2" function="internal">
        <lane id=":7463666139_2_0" index="0" speed="13.89" length="7.99" width="3.50" shape="601.33,934.21 608.86,937.02"/>
        <lane id=":7463666139_2_1" index="1" speed="13.89" length="7.99" width="3.50" shape="600.13,937.50 607.62,940.29"/>
        <lane id=":7463666139_2_2" index="2" speed="13.89" length="7.99" width="3.50" shape="598.93,940.79 606.38,943.56"/>
    </edge>
    <edge id=":7463666139_5" function="internal">
        <lane id=":7463666139_5_0" index="0" speed="4.71" length="4.42" width="4.00" shape="598.93,940.79 600.40,941.44 601.34,942.14 601.75,942.88 601.64,943.66"/>
    </edge>
    <edge id=":8210174851_0" function="internal">
        <lane id=":8210174851_0_0" index="0" speed="5.45" length="5.42" width="4.00" shape="834.01,1592.27 834.11,1594.13 834.50,1595.49 835.18,1596.37 836.14,1596.76"/>
    </edge>
    <edge id=":8210174851_1" function="internal">
        <lane id=":8210174851_1_0" index="0" speed="13.89" length="8.00" width="3.50" shape="834.01,1592.27 833.85,1600.26"/>
        <lane id=":8210174851_1_1" index="1" speed="13.89" length="8.00" width="3.50" shape="830.51,1592.20 830.35,1600.20"/>
    </edge>
    <edge id=":8210174851_3" function="internal">
        <lane id=":8210174851_3_0" index="0" speed="13.89" length="7.99" width="4.00" shape="828.22,1595.71 836.14,1596.76"/>
    </edge>
    <edge id=":8210174851_4" function="internal">
        <lane id=":8210174851_4_0" index="0" speed="5.52" length="5.43" width="3.50" shape="828.22,1595.71 829.18,1596.10 829.85,1596.97 830.24,1598.34 830.35,1600.20"/>
    </edge>
    <edge id=":8210174852_0" function="internal">
        <lane id=":8210174852_0_0" index="0" speed="13.89" length="0.28" width="4.00" shape="888.58,1608.66 888.85,1608.74"/>
    </edge>
    <edge id=":8210174853_0" function="internal">
        <lane id=":8210174853_0_0" index="0" speed="13.89" length="0.30" width="4.00" shape="859.96,1600.69 860.25,1600.77"/>
    </edge>
    <edge id=":871077613_0" function="internal">
        <lane id=":871077613_0_0" index="0" speed="5.20" length="6.53" width="4.00" shape="414.06,884.13 412.27,883.75 410.95,884.12 410.12,885.25 409.77,887.14"/>
    </edge>
    <edge id=":871077613_1" function="internal">
        <lane id=":871077613_1_0" index="0" speed="13.89" length="14.15" width="3.50" shape="414.06,884.13 410.25,882.42 407.81,880.86 405.37,879.31 401.56,877.60"/>
        <lane id=":871077613_1_1" index="1" speed="13.89" length="14.15" width="3.50" shape="415.29,880.85 411.47,879.14 409.03,877.59 406.59,876.03 402.78,874.32"/>
    </edge>
    <edge id=":871077613_3" function="internal">
        <lane id=":871077613_3_0" index="0" speed="7.31" length="8.73" width="3.50" shape="405.77,886.94 405.50,885.08 404.51,883.45 402.78,882.05 400.33,880.88"/>
    </edge>
    <edge id=":871077613_4" function="internal">
        <lane id=":871077613_4_0" index="0" speed="4.08" length="5.84" width="4.00" shape="405.77,886.94 406.84,885.49 407.87,885.04 408.84,885.59 409.77,887.14"/>
    </edge>
    <edge id=":871077623_0" function="internal">
        <lane id=":871077623_0_0" index="0" speed="13.89" length="7.99" width="3.50" shape="818.67,1598.66 818.82,1590.66"/>
        <lane id=":871077623_0_1" index="1" speed="13.89" length="7.99" width="3.50" shape="822.17,1598.71 822.32,1590.73"/>
    </edge>
    <edge id=":871077623_2" function="internal">
        <lane id=":871077623_2_0" index="0" speed="4.82" length="4.77" width="4.00" shape="822.17,1598.71 822.33,1597.08 822.76,1595.95 823.47,1595.33 824.44,1595.22"/>
    </edge>
    <edge id=":871077658_0" function="internal">
        <lane id=":871077658_0_0" index="0" speed="5.83" length="6.53" width="4.00" shape="586.27,889.49 585.94,891.24 586.23,892.69 587.15,893.86 588.70,894.74"/>
    </edge>
    <edge id=":871077658_1" function="internal">
        <lane id=":871077658_1_0" index="0" speed="13.89" length="8.00" width="4.00" shape="581.23,891.88 588.70,894.74"/>
    </edge>
    <edge id=":871077670_0" function="internal">
        <lane id=":871077670_0_0" index="0" speed="13.89" length="13.15" width="3.50" shape="836.99,1042.55 824.80,1037.65"/>
        <lane id=":871077670_0_1" index="1" speed="13.89" length="13.15" width="3.50" shape="838.13,1039.56 826.03,1034.37"/>
    </edge>
    <edge id=":871077670_2" function="internal">
        <lane id=":871077670_2_0" index="0" speed="7.90" length="2.90" shape="838.13,1039.56 836.34,1038.42 835.89,1037.78"/>
    </edge>
    <edge id=":871077670_6" function="internal">
        <lane id=":871077670_6_0" index="0" speed="7.90" length="7.17" shape="835.89,1037.78 835.08,1036.62 834.35,1034.13 834.15,1030.98"/>
    </edge>
    <edge id=":871077670_3" function="internal">
        <lane id=":871077670_3_0" index="0" speed="8.36" length="11.49" width="3.50" shape="830.67,1046.60 830.36,1043.53 829.28,1041.01 827.42,1039.06 824.80,1037.65"/>
    </edge>
    <edge id=":871077670_4" function="internal">
        <lane id=":871077670_4_0" index="0" speed="13.89" length="15.70" shape="830.67,1046.60 830.61,1042.35 830.59,1039.53 830.57,1036.58 830.95,1030.92"/>
        <lane id=":871077670_4_1" index="1" speed="13.89" length="15.70" shape="834.17,1046.67 834.26,1042.48 834.26,1039.34 834.33,1036.01 834.15,1030.98"/>
    </edge>
    <edge id=":871077671_0" function="internal">
        <lane id=":871077671_0_0" index="0" speed="13.89" length="7.99" width="4.00" shape="612.03,903.96 619.50,906.79"/>
    </edge>
    <edge id=":871077671_1" function="internal">
        <lane id=":871077671_1_0" index="0" speed="5.80" length="6.52" width="4.00" shape="612.03,903.96 613.57,904.84 614.48,906.01 614.76,907.46 614.40,909.21"/>
    </edge>
    <edge id=":871077684_0" function="internal">
        <lane id=":871077684_0_0" index="0" speed="6.35" length="6.84" width="4.00" shape="624.26,908.51 626.04,908.89 627.63,908.69 629.01,907.90 630.20,906.52"/>
    </edge>
    <edge id=":871077684_1" function="internal">
        <lane id=":871077684_1_0" index="0" speed="13.89" length="8.00" width="4.00" shape="624.26,908.51 631.77,911.27"/>
    </edge>
    <edge id=":871077720_0" function="internal">
        <lane id=":871077720_0_0" index="0" speed="13.89" length="8.00" width="3.50" shape="601.40,953.91 593.91,951.11"/>
        <lane id=":871077720_0_1" index="1" speed="13.89" length="8.00" width="3.50" shape="602.63,950.63 595.13,947.83"/>
    </edge>
    <edge id=":871077720_2" function="internal">
        <lane id=":871077720_2_0" index="0" speed="5.43" length="5.34" width="3.50" shape="599.96,947.24 599.30,948.04 598.28,948.40 596.88,948.33 595.13,947.83"/>
    </edge>
    <edge id=":8984639070_0" function="internal">
        <lane id=":8984639070_0_0" index="0" speed="13.89" length="8.00" width="4.00" shape="602.31,1518.04 595.94,1513.20"/>
    </edge>
    <edge id=":8984639070_1" function="internal">
        <lane id=":8984639070_1_0" index="0" speed="4.51" length="1.40" width="4.00" shape="599.18,1511.62 598.99,1513.01"/>
    </edge>
    <edge id=":8984639070_2" function="internal">
        <lane id=":8984639070_2_0" index="0" speed="4.51" length="3.85" width="4.00" shape="598.99,1513.01 598.96,1513.22 598.35,1514.02 597.34,1514.01 595.94,1513.20"/>
    </edge>
    <edge id=":8984639072_0" function="internal">
        <lane id=":8984639072_0_0" index="0" speed="13.89" length="8.00" width="4.00" shape="604.40,1224.61 604.26,1232.60"/>
    </edge>
    <edge id=":8984639072_1" function="internal">
        <lane id=":8984639072_1_0" index="0" speed="5.67" length="2.02" width="4.00" shape="600.36,1228.56 602.11,1228.83 602.32,1228.96"/>
    </edge>
    <edge id=":8984639072_2" function="internal">
        <lane id=":8984639072_2_0" index="0" speed="5.67" length="4.41" width="4.00" shape="602.32,1228.96 603.34,1229.60 604.06,1230.85 604.26,1232.60"/>
    </edge>
    <edge id=":8984639077_0" function="internal">
        <lane id=":8984639077_0_0" index="0" speed="5.76" length="6.48" width="4.00" shape="741.94,1206.67 741.69,1204.91 740.95,1203.65 739.70,1202.87 737.96,1202.58"/>
    </edge>
    <edge id=":8984639077_1" function="internal">
        <lane id=":8984639077_1_0" index="0" speed="13.89" length="8.00" width="4.00" shape="741.94,1206.67 742.07,1198.67"/>
    </edge>
    <edge id=":8984639077_2" function="internal">
        <lane id=":8984639077_2_0" index="0" speed="13.89" length="7.99" width="4.00" shape="745.94,1202.76 737.96,1202.58"/>
    </edge>
    <edge id=":8984639077_3" function="internal">
        <lane id=":8984639077_3_0" index="0" speed="5.69" length="1.99" width="4.00" shape="745.94,1202.76 744.20,1202.47 744.01,1202.35"/>
    </edge>
    <edge id=":8984639077_4" function="internal">
        <lane id=":8984639077_4_0" index="0" speed="5.69" length="4.44" width="4.00" shape="744.01,1202.35 742.98,1201.69 742.27,1200.43 742.07,1198.67"/>
    </edge>
    <edge id=":8984639087_0" function="internal">
        <lane id=":8984639087_0_0" index="0" speed="13.89" length="8.00" width="4.00" shape="582.89,1034.44 590.51,1032.02"/>
    </edge>
    <edge id=":8984639087_1" function="internal">
        <lane id=":8984639087_1_0" index="0" speed="5.06" length="5.88" width="4.00" shape="582.89,1034.44 584.56,1034.18 585.75,1034.57 586.47,1035.59 586.70,1037.26"/>
    </edge>
    <edge id=":8984639093_0" function="internal">
        <lane id=":8984639093_0_0" index="0" speed="13.89" length="8.00" width="4.00" shape="443.29,1224.80 435.29,1224.65"/>
    </edge>
    <edge id=":8984639093_1" function="internal">
        <lane id=":8984639093_1_0" index="0" speed="5.82" length="6.47" width="4.00" shape="443.29,1224.80 441.56,1224.51 440.31,1223.73 439.53,1222.47 439.24,1220.72"/>
    </edge>
    <edge id=":8984639094_0" function="internal">
        <lane id=":8984639094_0_0" index="0" speed="5.65" length="6.40" width="4.00" shape="585.77,1224.53 585.98,1226.27 586.70,1227.52 587.93,1228.26 589.68,1228.51"/>
    </edge>
    <edge id=":8984639094_1" function="internal">
        <lane id=":8984639094_1_0" index="0" speed="5.70" length="2.93" width="4.00" shape="585.77,1224.53 585.48,1226.27 584.86,1227.26"/>
    </edge>
    <edge id=":8984639094_4" function="internal">
        <lane id=":8984639094_4_0" index="0" speed="5.70" length="3.51" width="4.00" shape="584.86,1227.26 584.70,1227.50 583.44,1228.22 581.68,1228.42"/>
    </edge>
    <edge id=":8984639094_2" function="internal">
        <lane id=":8984639094_2_0" index="0" speed="5.73" length="6.46" width="4.00" shape="585.60,1232.52 585.38,1230.77 584.66,1229.50 583.42,1228.71 581.68,1228.42"/>
    </edge>
    <edge id=":8984639094_3" function="internal">
        <lane id=":8984639094_3_0" index="0" speed="5.76" length="2.98" width="4.00" shape="585.60,1232.52 585.88,1230.77 586.52,1229.74"/>
    </edge>
    <edge id=":8984639094_5" function="internal">
        <lane id=":8984639094_5_0" index="0" speed="5.76" length="3.51" width="4.00" shape="586.52,1229.74 586.66,1229.52 587.92,1228.76 589.68,1228.51"/>
    </edge>
    <edge id=":8984639096_0" function="internal">
        <lane id=":8984639096_0_0" index="0" speed="5.60" length="6.24" width="4.00" shape="590.27,1198.81 588.52,1198.98 587.26,1199.64 586.49,1200.80 586.21,1202.44"/>
    </edge>
    <edge id=":8984639096_1" function="internal">
        <lane id=":8984639096_1_0" index="0" speed="13.89" length="8.00" width="4.00" shape="586.30,1194.44 586.21,1202.44"/>
    </edge>
    <edge id=":8984639102_0" function="internal">
        <lane id=":8984639102_0_0" index="0" speed="6.22" length="6.77" width="4.00" shape="801.27,1219.87 799.47,1220.09 798.07,1220.81 797.08,1222.03 796.48,1223.74"/>
    </edge>
    <edge id=":8984639102_1" function="internal">
        <lane id=":8984639102_1_0" index="0" speed="6.53" length="6.93" width="4.00" shape="801.27,1219.87 799.45,1219.61 798.00,1218.87 796.91,1217.66 796.19,1215.97"/>
    </edge>
    <edge id=":8984639103_0" function="internal">
        <lane id=":8984639103_0_0" index="0" speed="5.10" length="5.09" width="4.00" shape="826.81,1224.16 826.71,1222.42 826.31,1221.17 825.63,1220.41 824.65,1220.15"/>
    </edge>
    <edge id=":8984639103_1" function="internal">
        <lane id=":8984639103_1_0" index="0" speed="13.89" length="8.00" width="3.50" shape="826.81,1224.16 826.98,1216.17"/>
        <lane id=":8984639103_1_1" index="1" speed="13.89" length="8.00" width="3.50" shape="830.31,1224.24 830.48,1216.24"/>
    </edge>
    <edge id=":9040295924_0" function="internal">
        <lane id=":9040295924_0_0" index="0" speed="13.89" length="8.00" width="4.00" shape="1151.62,853.54 1154.36,846.02"/>
    </edge>
    <edge id=":9040295924_1" function="internal">
        <lane id=":9040295924_1_0" index="0" speed="5.72" length="6.46" width="4.00" shape="1151.62,853.54 1152.45,851.97 1153.59,851.05 1155.02,850.77 1156.75,851.13"/>
    </edge>
    <edge id=":9040295944_0" function="internal">
        <lane id=":9040295944_0_0" index="0" speed="5.66" length="6.41" width="4.00" shape="1068.21,1072.97 1069.92,1073.36 1071.34,1073.10 1072.47,1072.19 1073.29,1070.64"/>
    </edge>
    <edge id=":9040295944_1" function="internal">
        <lane id=":9040295944_1_0" index="0" speed="13.89" length="8.00" width="4.00" shape="1068.21,1072.97 1075.66,1075.87"/>
    </edge>
    <edge id=":9040295944_2" function="internal">
        <lane id=":9040295944_2_0" index="0" speed="13.89" length="7.99" width="4.00" shape="1070.60,1078.16 1073.29,1070.64"/>
    </edge>
    <edge id=":9040295944_3" function="internal">
        <lane id=":9040295944_3_0" index="0" speed="5.63" length="2.02" width="4.00" shape="1070.60,1078.16 1071.42,1076.61 1071.62,1076.44"/>
    </edge>
    <edge id=":9040295944_4" function="internal">
        <lane id=":9040295944_4_0" index="0" speed="5.63" length="4.37" width="4.00" shape="1071.62,1076.44 1072.53,1075.71 1073.95,1075.46 1075.66,1075.87"/>
    </edge>
    <edge id=":9040295955_0" function="internal">
        <lane id=":9040295955_0_0" index="0" speed="5.04" length="5.87" width="4.00" shape="898.56,888.40 896.91,888.05 895.71,888.37 894.95,889.36 894.65,891.02"/>
    </edge>
    <edge id=":9040295955_1" function="internal">
        <lane id=":9040295955_1_0" index="0" speed="13.89" length="8.00" width="4.00" shape="894.95,883.03 894.65,891.02"/>
    </edge>
    <edge id=":9040295956_0" function="internal">
        <lane id=":9040295956_0_0" index="0" speed="5.69" length="6.44" width="4.00" shape="1109.58,969.13 1109.93,967.40 1109.64,965.97 1108.72,964.85 1107.15,964.04"/>
    </edge>
    <edge id=":9040295956_1" function="internal">
        <lane id=":9040295956_1_0" index="0" speed="13.89" length="8.00" width="4.00" shape="1109.58,969.13 1112.29,961.61"/>
    </edge>
    <edge id=":9040296011_0" function="internal">
        <lane id=":9040296011_0_0" index="0" speed="4.94" length="4.71" width="4.00" shape="1056.60,1105.66 1058.26,1106.16 1059.52,1106.29 1060.40,1106.03 1060.89,1105.40"/>
    </edge>
    <edge id=":9040296011_1" function="internal">
        <lane id=":9040296011_1_0" index="0" speed="13.89" length="8.00" width="3.50" shape="1056.60,1105.66 1064.09,1108.47"/>
        <lane id=":9040296011_1_1" index="1" speed="13.89" length="8.00" width="3.50" shape="1055.37,1108.93 1062.86,1111.74"/>
        <lane id=":9040296011_1_2" index="2" speed="13.89" length="8.00" width="3.50" shape="1054.14,1112.21 1061.63,1115.02"/>
    </edge>
    <edge id=":9523599677_0" function="internal">
        <lane id=":9523599677_0_0" index="0" speed="13.89" length="7.99" width="4.00" shape="398.57,1477.97 398.45,1485.96"/>
    </edge>
    <edge id=":9523599677_1" function="internal">
        <lane id=":9523599677_1_0" index="0" speed="4.08" length="2.92" width="4.00" shape="398.57,1477.97 397.54,1479.46 396.54,1479.94"/>
    </edge>
    <edge id=":9523599677_6" function="internal">
        <lane id=":9523599677_6_0" index="0" speed="4.08" length="2.92" width="4.00" shape="396.54,1479.94 395.54,1479.42 394.57,1477.91"/>
    </edge>
    <edge id=":9523599677_2" function="internal">
        <lane id=":9523599677_2_0" index="0" speed="5.09" length="4.91" width="4.00" shape="392.48,1481.80 393.37,1481.58 394.01,1480.86 394.41,1479.64 394.57,1477.91"/>
    </edge>
    <edge id=":9523599677_3" function="internal">
        <lane id=":9523599677_3_0" index="0" speed="6.36" length="8.16" width="4.00" shape="392.48,1481.80 395.11,1482.14 396.98,1482.94 398.09,1484.22 398.45,1485.96"/>
    </edge>
    <edge id=":9523599677_4" function="internal">
        <lane id=":9523599677_4_0" index="0" speed="13.89" length="8.02" width="4.00" shape="394.45,1485.92 394.57,1477.91"/>
    </edge>
    <edge id=":9523599677_5" function="internal">
        <lane id=":9523599677_5_0" index="0" speed="4.08" length="2.92" width="4.00" shape="394.45,1485.92 395.47,1484.43 396.47,1483.94"/>
    </edge>
    <edge id=":9523599677_7" function="internal">
        <lane id=":9523599677_7_0" index="0" speed="4.08" length="2.92" width="4.00" shape="396.47,1483.94 397.47,1484.45 398.45,1485.96"/>
    </edge>
    <edge id=":9536589400_0" function="internal">
        <lane id=":9536589400_0_0" index="0" speed="6.04" length="6.93" width="4.00" shape="223.13,1243.23 221.34,1243.47 220.01,1244.27 219.12,1245.62 218.69,1247.53"/>
    </edge>
    <edge id=":9536589400_1" function="internal">
        <lane id=":9536589400_1_0" index="0" speed="5.60" length="6.19" width="4.00" shape="223.13,1243.23 221.36,1242.98 220.11,1242.28 219.37,1241.13 219.15,1239.55"/>
    </edge>
    <edge id=":9536906820_0" function="internal">