<?xml version='1.0' encoding='UTF-8'?>
<nodes>
  <node id="1423186442" x="265.807728" y="-321.84987" shape="262.478669,-329.192715 270.443734,-328.445888 273.215033,-325.032923 272.310683,-317.084203 269.064889,-314.474851 261.107501,-315.299461 258.435679,-318.585992 259.253039,-326.544128 262.478669,-329.192715 262.478669,-329.192715"/>
  <node id="1423186449" x="88.378495" y="-340.056986" shape="88.787879,-344.035981 89.782627,-343.933636 88.963860,-335.975645 87.969111,-336.077991 87.183205,-338.167202 87.583842,-342.147088 88.787879,-344.035981 88.787879,-344.035981"/>
  <node id="1423186457" x="50.364239" y="-343.883708"/>
  <node id="1423186485" x="-154.999894" y="-343.159523" shape="-151.087120,-348.474850 -149.961898,-344.636376 -149.835204,-344.102113 -148.305959,-335.737383 -148.119725,-333.806527 -158.571222,-332.798461 -162.814852,-336.611483 -161.163112,-345.521143 -151.087120,-348.474850 -151.087120,-348.474850"/>
  <node id="3076808548" x="510.505305" y="376.70246" shape="508.062351,371.982081 514.859625,373.654526 514.704697,375.164569 514.255253,379.139239 512.943434,381.425333 506.147873,379.745942 506.258808,378.105053 506.835333,374.146818 508.062351,371.982081 508.062351,371.982081"/>
  <node id="3088573907" x="-179.365458" y="95.339096" shape="-182.466415,91.022377 -175.498571,91.692565 -175.187839,93.743007 -175.582016,97.723538 -176.267522,99.657984 -183.234895,98.982920 -183.541002,96.940605 -183.151992,92.959566 -182.466415,91.022377 -182.466415,91.022377"/>
  <node id="3089013515" x="195.956829" y="342.845957" shape="192.897691,338.499501 199.858740,339.236928 200.161125,341.321526 199.698952,345.294735 199.034953,347.178987 192.070745,346.472022 191.800986,344.497916 192.141756,340.512458 192.897691,338.499501 192.897691,338.499501"/>
  <node id="3089013524" x="-199.192024" y="300.153644" shape="-202.289848,295.834676 -195.322492,296.509920 -195.017403,298.549731 -195.404121,302.530994 -196.088148,304.468265 -203.056444,303.802789 -203.367599,301.755073 -202.978512,297.774042 -202.289848,295.834676 -202.289848,295.834676"/>
  <node id="3099707616" x="240.669637" y="-99.717704" shape="237.167379,-104.160022 245.111955,-103.219962 247.985532,-102.497574 247.283070,-95.532910 245.057915,-90.074415 238.086484,-89.442621 237.719133,-89.542021 232.017481,-93.602952 234.114704,-103.993549 237.167379,-104.160022 237.167379,-104.160022"/>
  <node id="3564782279" x="-104.677806" y="-356.585698" shape="-104.275536,-361.039705 -100.873239,-358.936286 -100.866311,-358.925036 -100.519438,-354.940105 -105.310495,-354.441006 -106.378955,-357.637407 -106.013946,-358.378665 -104.275536,-361.039705 -104.275536,-361.039705"/>
  <node id="3762455092" x="75.384012" y="-116.990765"/>
  <node id="3762455101" x="7.394141" y="-123.203742"/>
  <node id="4460354176" x="241.821237" y="-87.010557" shape="244.675158,-94.297884 246.078341,-90.192862 245.540482,-83.213556 244.883627,-82.666392 237.922028,-83.398609 234.408230,-84.501111 235.365875,-91.435295 237.703728,-93.666090 244.675158,-94.297884 244.675158,-94.297884"/>
  <node id="4460354177" x="232.532776" y="-88.29334" shape="233.742881,-96.025458 239.444533,-91.964527 239.945783,-90.802786 238.988138,-83.868602 235.604819,-83.955996 228.641609,-84.672729 228.124758,-85.323596 229.004178,-92.268135 233.742881,-96.025458 233.742881,-96.025458"/>
  <node id="4460354179" x="186.278588" y="342.018434" shape="183.223810,337.668914 190.184116,338.413319 190.434431,340.366475 190.093661,344.351933 189.341141,346.362484 182.379514,345.630528 182.074485,343.543398 182.536155,339.570130 183.223810,337.668914 183.223810,337.668914"/>
  <node id="4465824360" x="208.515544" y="134.099467" shape="205.468218,129.744722 212.427239,130.501045 212.718459,132.571231 212.259882,136.544857 211.570322,138.448987 204.610016,137.704582 205.036033,133.721306 205.468218,129.744722 205.468218,129.744722"/>
  <node id="4465824361" x="217.955233" y="135.188855" shape="214.903296,130.837341 221.863114,131.586291 222.154780,133.651387 221.704935,137.626012 221.014371,139.535311 214.053322,138.797884 213.752318,136.717091 214.210895,132.743465 214.903296,130.837341 214.903296,130.837341"/>
  <node id="4465824362" x="332.404739" y="148.142145"/>
  <node id="4465824363" x="307.867198" y="355.863645" shape="306.317419,351.668626 310.293346,352.106810 312.047023,354.273343 311.647335,358.253324 307.667354,357.853636 307.636111,357.850250 303.662902,357.388076 304.125075,353.414867 306.317419,351.668626 306.317419,351.668626"/>
  <node id="5052888260" x="499.746908" y="375.135478" shape="497.269323,370.433184 504.078706,372.055620 503.993405,373.732885 503.416880,377.691120 502.181374,379.860240 495.387117,378.175581 495.967162,372.745182 497.269323,370.433184 497.269323,370.433184"/>
  <node id="5052888298" x="74.071726" y="-105.956057"/>
  <node id="5052888300" x="6.540204" y="-113.064175"/>
  <node id="5065485736" x="-98.496195" y="309.927324" shape="-100.043940,305.731554 -96.068226,306.171666 -94.326965,308.309449 -94.700357,312.291983 -96.835512,314.079689 -100.821677,313.747289 -102.670677,311.531601 -102.284305,307.550305 -100.043940,305.731554 -100.043940,305.731554"/>
  <node id="5367297449" x="-155.772386" y="-129.77921" shape="-158.800671,-134.147218 -151.845018,-133.360520 -151.456042,-132.880690 -152.125387,-125.912765 -152.915478,-125.297238 -159.835459,-126.352632 -160.063662,-126.643137 -159.450345,-133.616217 -158.800671,-134.147218 -158.800671,-134.147218"/>
  <node id="5367297456" x="-211.084526" y="298.991329" shape="-214.183054,294.672866 -207.215588,295.346974 -206.908951,297.389900 -207.298038,301.370931 -207.979591,303.305188 -214.948050,302.641423 -215.274490,300.554723 -214.849220,296.577394 -214.183054,294.672866 -214.183054,294.672866"/>
  <node id="5367297457" x="-191.257996" y="94.177007" shape="-194.358438,89.859918 -187.390674,90.530938 -187.082452,92.575498 -187.471462,96.556537 -188.159045,98.495167 -195.126577,97.821740 -195.448406,95.739206 -195.022001,91.761999 -194.358438,89.859918 -194.358438,89.859918"/>
  <node id="5367297458" x="-170.218377" y="-131.049806" shape="-174.921174,-135.680810 -164.505246,-134.354747 -165.010413,-130.386775 -166.540418,-127.212799 -167.155846,-126.705741 -174.117468,-127.437731 -174.589801,-128.026456 -175.426341,-131.712837 -174.921174,-135.680810 -174.921174,-135.680810"/>
  <node id="5367297459" x="-168.75012" y="-142.582643" shape="-173.682528,-146.968284 -163.212607,-146.174084 -163.515159,-142.185543 -163.542156,-141.919612 -164.047323,-137.951639 -174.463251,-139.277702 -173.682528,-146.968284 -173.682528,-146.968284"/>
  <node id="5367297510" x="-140.065364" y="-304.573888" shape="-138.498674,-305.817063 -134.787064,-305.411772 -132.282801,-297.983614 -135.653828,-294.176732 -146.118403,-295.038521 -145.282086,-305.735056 -138.498674,-305.817063 -138.498674,-305.817063"/>
  <node id="5367297517" x="-142.812382" y="-347.012529" shape="-138.710036,-352.182950 -137.724296,-348.306313 -137.690073,-348.163379 -136.813236,-344.260667 -147.057853,-341.958968 -148.886209,-349.595382 -138.710036,-352.182950 -138.710036,-352.182950"/>
  <node id="5367297626" x="-154.51696" y="-140.879154" shape="-161.009382,-145.659160 -147.102648,-144.045853 -147.563593,-140.072501 -151.160170,-136.758236 -151.488675,-136.511146 -158.444328,-137.297844 -158.904543,-137.879301 -161.470327,-141.685807 -161.009382,-145.659160 -161.009382,-145.659160"/>
  <node id="7525033400" x="172.558779" y="472.507388" shape="169.496226,468.163338 176.457853,468.895294 175.655492,476.827153 168.688310,476.150116 168.355668,474.035086 168.814754,470.061518 169.496226,468.163338 169.496226,468.163338"/>
  <node id="7525033408" x="104.233401" y="332.485267" shape="100.508899,330.009771 108.437504,330.960303 107.975834,334.933571 105.739591,336.696133 101.768422,336.216738 100.018303,333.979571 100.508899,330.009771 100.508899,330.009771"/>
  <node id="7793066913" x="16.55974" y="321.650378"/>
  <node id="7793066914" x="-14.266508" y="317.824482"/>
  <node id="7990460414" x="-156.703623" y="-258.760962" shape="-161.156100,-269.140651 -150.688211,-268.320110 -151.469678,-258.350691 -151.482851,-258.207749 -151.588225,-257.213317 -158.274107,-257.522583 -162.029768,-258.319742 -164.465999,-265.375001 -161.156100,-269.140651 -161.156100,-269.140651"/>
  <node id="8170600424" x="-100.370119" y="332.399559" shape="-98.823102,331.131987 -98.293937,331.569218 -94.386600,336.546546 -97.480634,339.081690 -98.958448,339.541490 -102.944626,339.209252 -102.363201,332.233359 -102.280101,331.236818 -98.823102,331.131987 -98.823102,331.131987"/>
  <node id="8170600528" x="-117.208855" y="534.429551" shape="-118.869705,530.277253 -114.883527,530.609492 -113.057292,532.766864 -113.387768,536.753189 -118.154205,538.800628 -121.272926,536.295917 -118.869705,530.277253 -118.869705,530.277253"/>
  <node id="8517653110" x="-148.413875" y="-203.135786" shape="-154.571287,-213.675533 -140.618327,-212.528839 -139.041705,-207.156038 -141.544110,-201.460575 -147.280281,-201.488071 -155.477908,-202.820455 -154.571287,-213.675533 -154.571287,-213.675533"/>
  <node id="8537105765" x="-1.358948" y="-348.738986" shape="-2.933567,-352.924745 1.044888,-352.510136 2.810463,-350.356394 2.436625,-346.373902 -5.527255,-347.118733 -5.156134,-351.101480 -2.933567,-352.924745 -2.933567,-352.924745"/>
  <node id="8537105769" x="190.677122" y="-329.531874" shape="187.107510,-333.920253 195.061862,-333.105955 194.251203,-325.147134 188.377054,-325.696553 186.288743,-325.962262 187.107510,-333.920253 187.107510,-333.920253"/>
  <node id="8537113900" x="-145.891384" y="-233.829412" shape="-151.041596,-235.256933 -140.577022,-234.395144 -138.914904,-233.256065 -138.996811,-232.259425 -152.949771,-233.406119 -152.867864,-234.402759 -151.041596,-235.256933 -151.041596,-235.256933"/>
  <node id="8863086029" x="-372.876105" y="20.607468" shape="-373.281503,16.153745 -370.707456,16.696335 -368.446009,19.995707 -369.070122,22.955764 -372.471152,25.061232 -376.682322,18.259552 -373.281503,16.153745 -373.281503,16.153745"/>
  <node id="8863086131" x="-267.234916" y="-140.943317" shape="-270.868984,-144.821918 -262.908264,-144.030400 -263.600818,-137.064744 -265.538487,-136.805428 -269.527370,-137.103440 -271.561592,-137.856267 -270.868984,-144.821918 -270.868984,-144.821918"/>
  <node id="Custom44" x="279.047864" y="-455.731409"/>
  <node id="Custom45" x="-190.05991799999998" y="-402.73088"/>
  <node id="Custom46" x="-364.727476" y="-161.98596"/>
  <node id="Custom47" x="518.212053" y="-149.349233"/>
  <node id="Custom48" x="189.200822" y="-311.999506"/>
  <node id="Custom49" x="-180.746678" y="-410.380406"/>
  <node id="Custom50" x="-427.209924" y="-67.670111"/>
  <node id="Custom51" x="-222.21585499999998" y="546.205006"/>
  <node id="Custom52" x="-477.49343799999997" y="271.616234"/>
  <node id="Custom53" x="-234.154474" y="545.490894"/>
  <node id="Custom54" x="-125.19918" y="588.793023"/>
  <node id="Custom55" x="160.729933" y="594.234493"/>
  <node id="Custom56" x="425.483689" y="652.088303"/>
  <node id="Custom57" x="436.27743100000004" y="651.6170529999999"/>
  <node id="Custom58" x="814.435944" y="295.50136799999996"/>
  <node id="Custom59" x="-367.421429" y="-150.722999"/>
  <node id="Custom60" x="170.288315" y="595.702701"/>
</nodes>
