<?xml version="1.0" encoding="UTF-8"?>

<!-- generated on 08/08/22 14:39:05 by Eclipse SUMO netconvert Version 1.8.0
<configuration xmlns:xsi="http://www.w3.org/2001/XMLSchema-instance" xsi:noNamespaceSchemaLocation="http://sumo.dlr.de/xsd/netconvertConfiguration.xsd">

    <input>
        <node-files value="D:\World\20220808\map_net\sumo.nod.xml"/>
        <edge-files value="D:\World\20220808\map_net\sumo.edg.xml"/>
    </input>

    <output>
        <output-file value="D:\World\20220808\map_net\sumo.net.xml"/>
    </output>

    <report>
        <aggregate-warnings value="5"/>
    </report>

</configuration>
-->

<net version="1.6" junctionCornerDetail="5" limitTurnSpeed="5.50" xmlns:xsi="http://www.w3.org/2001/XMLSchema-instance" xsi:noNamespaceSchemaLocation="http://sumo.dlr.de/xsd/net_file.xsd">

    <location netOffset="477.49,455.73" convBoundary="0.00,0.00,1293.20,1108.73" origBoundary="-477.49,-455.73,815.71,653.00" projParameter="!"/>

    <edge id=":1423186442_0" function="internal">
        <lane id=":1423186442_0_0" index="0" speed="6.24" length="8.01" width="4.00" shape="750.03,136.66 747.83,136.72 746.19,137.48 745.10,138.92 744.57,141.05"/>
    </edge>
    <edge id=":1423186442_1" function="internal">
        <lane id=":1423186442_1_0" index="0" speed="13.89" length="13.98" width="4.00" shape="750.03,136.66 736.13,135.16"/>
    </edge>
    <edge id=":1423186442_2" function="internal">
        <lane id=":1423186442_2_0" index="0" speed="8.02" length="13.80" width="4.00" shape="750.03,136.66 746.93,135.50 744.26,133.10 742.46,130.00 741.96,126.73"/>
    </edge>
    <edge id=":1423186442_3" function="internal">
        <lane id=":1423186442_3_0" index="0" speed="4.08" length="5.84" width="4.00" shape="750.03,136.66 748.65,135.50 748.27,134.45 748.88,133.51 750.48,132.69"/>
    </edge>
    <edge id=":1423186442_4" function="internal">
        <lane id=":1423186442_4_0" index="0" speed="6.35" length="8.17" width="4.00" shape="745.95,127.10 746.05,129.33 746.84,131.00 748.32,132.12 750.48,132.69"/>
    </edge>
    <edge id=":1423186442_5" function="internal">
        <lane id=":1423186442_5_0" index="0" speed="13.89" length="14.02" width="4.00" shape="745.95,127.10 744.57,141.05"/>
    </edge>
    <edge id=":1423186442_6" function="internal">
        <lane id=":1423186442_6_0" index="0" speed="7.92" length="5.34" width="4.00" shape="745.95,127.10 744.84,130.20 743.48,131.73"/>
    </edge>
    <edge id=":1423186442_7" function="internal">
        <lane id=":1423186442_7_0" index="0" speed="4.08" length="2.92" width="4.00" shape="745.95,127.10 744.81,128.50 743.77,128.90"/>
    </edge>
    <edge id=":1423186442_16" function="internal">
        <lane id=":1423186442_16_0" index="0" speed="7.92" length="8.38" width="4.00" shape="743.48,131.73 742.47,132.87 739.39,134.67 736.13,135.16"/>
    </edge>
    <edge id=":1423186442_17" function="internal">
        <lane id=":1423186442_17_0" index="0" speed="4.08" length="2.92" width="4.00" shape="743.77,128.90 742.82,128.31 741.96,126.73"/>
    </edge>
    <edge id=":1423186442_8" function="internal">
        <lane id=":1423186442_8_0" index="0" speed="6.24" length="8.02" width="4.00" shape="736.54,131.18 738.74,131.09 740.38,130.32 741.45,128.86 741.96,126.73"/>
    </edge>
    <edge id=":1423186442_9" function="internal">
        <lane id=":1423186442_9_0" index="0" speed="13.89" length="14.02" width="4.00" shape="736.54,131.18 750.48,132.69"/>
    </edge>
    <edge id=":1423186442_10" function="internal">
        <lane id=":1423186442_10_0" index="0" speed="7.95" length="13.74" width="4.00" shape="736.54,131.18 739.64,132.31 742.30,134.69 744.09,137.79 744.57,141.05"/>
    </edge>
    <edge id=":1423186442_11" function="internal">
        <lane id=":1423186442_11_0" index="0" speed="4.08" length="5.84" width="4.00" shape="736.54,131.18 737.93,132.32 738.33,133.37 737.73,134.31 736.13,135.16"/>
    </edge>
    <edge id=":1423186442_12" function="internal">
        <lane id=":1423186442_12_0" index="0" speed="6.27" length="8.06" width="4.00" shape="740.59,140.64 740.50,138.43 739.73,136.78 738.28,135.69 736.13,135.16"/>
    </edge>
    <edge id=":1423186442_13" function="internal">
        <lane id=":1423186442_13_0" index="0" speed="13.89" length="13.98" width="4.00" shape="740.59,140.64 741.96,126.73"/>
    </edge>
    <edge id=":1423186442_14" function="internal">
        <lane id=":1423186442_14_0" index="0" speed="7.92" length="5.26" width="4.00" shape="740.59,140.64 741.73,137.55 743.05,136.09"/>
    </edge>
    <edge id=":1423186442_15" function="internal">
        <lane id=":1423186442_15_0" index="0" speed="4.08" length="2.92" width="4.00" shape="740.59,140.64 741.74,139.25 742.79,138.85"/>
    </edge>
    <edge id=":1423186442_18" function="internal">
        <lane id=":1423186442_18_0" index="0" speed="7.92" length="8.46" width="4.00" shape="743.05,136.09 744.12,134.90 747.22,133.13 750.48,132.69"/>
    </edge>
    <edge id=":1423186442_19" function="internal">
        <lane id=":1423186442_19_0" index="0" speed="4.08" length="2.92" width="4.00" shape="742.79,138.85 743.73,139.46 744.57,141.05"/>
    </edge>
    <edge id=":1423186449_0" function="internal">
        <lane id=":1423186449_0_0" index="0" speed="13.89" length="2.83" width="4.00" shape="566.66,117.77 564.88,115.57"/>
    </edge>
    <edge id=":1423186449_1" function="internal">
        <lane id=":1423186449_1_0" index="0" speed="4.08" length="5.84" width="4.00" shape="566.66,117.77 565.27,116.62 564.88,115.57 565.48,114.63 567.07,113.79"/>
    </edge>
    <edge id=":1423186457_0" function="internal">
        <lane id=":1423186457_0_0" index="0" speed="13.89" length="0.30" width="4.00" shape="528.01,111.86 527.71,111.83"/>
    </edge>
    <edge id=":1423186485_0" function="internal">
        <lane id=":1423186485_0_0" index="0" speed="13.89" length="14.01" width="3.50" shape="320.66,122.76 320.24,118.83 319.80,116.15 319.12,113.52 318.01,109.72"/>
        <lane id=":1423186485_0_1" index="1" speed="13.89" length="14.01" width="3.50" shape="324.15,122.43 323.71,118.30 323.24,115.49 322.54,112.72 321.37,108.73"/>
        <lane id=":1423186485_0_2" index="2" speed="13.89" length="14.01" width="3.50" shape="327.63,122.09 327.17,117.77 326.69,114.82 325.95,111.93 324.73,107.75"/>
    </edge>
    <edge id=":1423186485_3" function="internal">
        <lane id=":1423186485_3_0" index="0" speed="4.99" length="4.69" width="3.50" shape="327.50,110.99 326.70,110.98 325.97,110.44 325.31,109.36 324.73,107.75"/>
    </edge>
    <edge id=":1423186485_4" function="internal">
        <lane id=":1423186485_4_0" index="0" speed="9.74" length="11.34" width="3.50" shape="316.17,120.46 317.65,118.08 318.45,115.49 318.57,112.70 318.01,109.72"/>
    </edge>
    <edge id=":3076808548_0" function="internal">
        <lane id=":3076808548_0_0" index="0" speed="4.79" length="4.74" width="4.00" shape="990.65,828.97 990.40,830.59 990.53,831.78 991.06,832.54 991.97,832.88"/>
    </edge>
    <edge id=":3076808548_1" function="internal">
        <lane id=":3076808548_1_0" index="0" speed="13.89" length="8.00" width="3.50" shape="990.65,828.97 988.74,836.74"/>
        <lane id=":3076808548_1_1" index="1" speed="13.89" length="8.00" width="3.50" shape="987.26,828.13 985.34,835.90"/>
    </edge>
    <edge id=":3076808548_3" function="internal">
        <lane id=":3076808548_3_0" index="0" speed="13.89" length="8.00" width="4.00" shape="984.04,831.86 991.97,832.88"/>
    </edge>
    <edge id=":3076808548_4" function="internal">
        <lane id=":3076808548_4_0" index="0" speed="4.94" length="4.84" width="3.50" shape="984.04,831.86 984.95,832.23 985.47,833.03 985.60,834.25 985.34,835.90"/>
    </edge>
    <edge id=":3088573907_0" function="internal">
        <lane id=":3088573907_0_0" index="0" speed="5.19" length="5.11" width="3.50" shape="302.11,551.46 301.10,551.62 300.33,552.29 299.79,553.49 299.48,555.22"/>
    </edge>
    <edge id=":3088573907_1" function="internal">
        <lane id=":3088573907_1_0" index="0" speed="13.89" length="8.00" width="3.50" shape="300.25,547.26 299.48,555.22"/>
        <lane id=":3088573907_1_1" index="1" speed="13.89" length="8.00" width="3.50" shape="296.77,546.92 296.00,554.88"/>
    </edge>
    <edge id=":3088573907_3" function="internal">
        <lane id=":3088573907_3_0" index="0" speed="5.20" length="5.12" width="3.50" shape="294.15,550.68 295.10,551.03 295.73,551.84 296.03,553.13 296.00,554.88"/>
    </edge>
    <edge id=":3089013515_0" function="internal">
        <lane id=":3089013515_0_0" index="0" speed="5.16" length="5.15" width="4.00" shape="675.61,794.78 675.57,796.55 675.85,797.85 676.47,798.68 677.42,799.04"/>
    </edge>
    <edge id=":3089013515_1" function="internal">
        <lane id=":3089013515_1_0" index="0" speed="13.89" length="8.00" width="3.50" shape="675.61,794.78 674.79,802.73"/>
        <lane id=":3089013515_1_1" index="1" speed="13.89" length="8.00" width="3.50" shape="672.13,794.42 671.31,802.38"/>
    </edge>
    <edge id=":3089013515_3" function="internal">
        <lane id=":3089013515_3_0" index="0" speed="13.89" length="8.00" width="4.00" shape="669.46,798.24 677.42,799.04"/>
    </edge>
    <edge id=":3089013515_4" function="internal">
        <lane id=":3089013515_4_0" index="0" speed="5.15" length="5.07" width="3.50" shape="669.46,798.24 670.42,798.57 671.05,799.37 671.34,800.64 671.31,802.38"/>
    </edge>
    <edge id=":3089013524_0" function="internal">
        <lane id=":3089013524_0_0" index="0" speed="5.13" length="5.12" width="4.00" shape="280.43,752.07 280.40,753.83 280.70,755.11 281.33,755.93 282.28,756.27"/>
    </edge>
    <edge id=":3089013524_1" function="internal">
        <lane id=":3089013524_1_0" index="0" speed="13.89" length="8.00" width="3.50" shape="280.43,752.07 279.66,760.03"/>
        <lane id=":3089013524_1_1" index="1" speed="13.89" length="8.00" width="3.50" shape="276.95,751.73 276.18,759.70"/>
    </edge>
    <edge id=":3089013524_3" function="internal">
        <lane id=":3089013524_3_0" index="0" speed="5.13" length="5.12" width="4.00" shape="276.95,751.73 276.64,753.46 276.10,754.67 275.32,755.34 274.32,755.50"/>
    </edge>
    <edge id=":3099707616_0" function="internal">
        <lane id=":3099707616_0_0" index="0" speed="5.49" length="5.94" width="3.50" shape="720.62,352.28 720.81,353.27 721.66,354.05 723.16,354.62 725.30,354.98"/>
    </edge>
    <edge id=":3099707616_1" function="internal">
        <lane id=":3099707616_1_0" index="0" speed="4.08" length="5.84" width="4.00" shape="720.62,352.28 719.45,353.65 718.40,354.03 717.46,353.41 716.65,351.81"/>
    </edge>
    <edge id=":3099707616_2" function="internal">
        <lane id=":3099707616_2_0" index="0" speed="5.55" length="6.17" width="4.00" shape="711.26,353.46 713.52,353.58 715.17,353.34 716.21,352.75 716.65,351.81"/>
    </edge>
    <edge id=":3099707616_3" function="internal">
        <lane id=":3099707616_3_0" index="0" speed="13.89" length="14.30" width="3.50" shape="711.26,353.46 725.30,354.98"/>
        <lane id=":3099707616_3_1" index="1" speed="13.89" length="14.30" width="3.50" shape="710.57,356.90 724.95,358.46"/>
    </edge>
    <edge id=":3564782279_0" function="internal">
        <lane id=":3564782279_0_0" index="0" speed="13.89" length="5.29" width="4.00" shape="376.80,98.80 375.23,98.92 374.16,99.00 373.09,99.12 371.54,99.37"/>
    </edge>
    <edge id=":3564782279_1" function="internal">
        <lane id=":3564782279_1_0" index="0" speed="7.31" length="1.51" width="4.00" shape="374.92,95.74 374.08,97.00"/>
    </edge>
    <edge id=":3564782279_2" function="internal">
        <lane id=":3564782279_2_0" index="0" speed="7.31" length="3.54" width="4.00" shape="374.08,97.00 373.92,97.25 373.02,98.35 372.23,99.06 371.54,99.37"/>
    </edge>
    <edge id=":3762455092_0" function="internal">
        <lane id=":3762455092_0_0" index="0" speed="13.89" length="0.29" width="3.50" shape="552.89,336.98 553.20,337.01"/>
        <lane id=":3762455092_0_1" index="1" speed="13.89" length="0.29" width="3.50" shape="552.57,340.47 552.85,340.50"/>
    </edge>
    <edge id=":3762455101_0" function="internal">
        <lane id=":3762455101_0_0" index="0" speed="13.89" length="0.29" width="3.50" shape="484.92,330.77 485.19,330.80"/>
        <lane id=":3762455101_0_1" index="1" speed="13.89" length="0.29" width="3.50" shape="484.56,334.25 484.87,334.28"/>
    </edge>
    <edge id=":4460354176_0" function="internal">
        <lane id=":4460354176_0_0" index="0" speed="4.57" length="3.73" width="3.50" shape="723.17,370.77 722.15,370.84 721.39,371.21 720.89,371.89 720.64,372.88"/>
    </edge>
    <edge id=":4460354176_1" function="internal">
        <lane id=":4460354176_1_0" index="0" speed="6.68" length="9.27" width="3.50" shape="723.44,367.28 720.91,367.45 719.02,368.37 717.77,370.06 717.16,372.52"/>
    </edge>
    <edge id=":4460354177_0" function="internal">
        <lane id=":4460354177_0_0" index="0" speed="4.55" length="3.72" width="3.50" shape="707.88,371.24 707.84,370.22 707.48,369.46 706.82,368.94 705.84,368.67"/>
    </edge>
    <edge id=":4460354177_1" function="internal">
        <lane id=":4460354177_1_0" index="0" speed="6.67" length="9.27" width="3.50" shape="711.36,371.60 711.26,369.07 710.38,367.16 708.72,365.87 706.28,365.20"/>
    </edge>
    <edge id=":4460354179_0" function="internal">
        <lane id=":4460354179_0_0" index="0" speed="5.17" length="5.09" width="3.50" shape="659.80,797.29 660.80,797.15 661.58,796.49 662.13,795.30 662.46,793.59"/>
    </edge>
    <edge id=":4460354179_1" function="internal">
        <lane id=":4460354179_1_0" index="0" speed="13.89" length="8.00" width="4.00" shape="659.80,797.29 667.76,798.09"/>
    </edge>
    <edge id=":4460354179_2" function="internal">
        <lane id=":4460354179_2_0" index="0" speed="13.89" length="8.00" width="3.50" shape="661.61,801.54 662.46,793.59"/>
        <lane id=":4460354179_2_1" index="1" speed="13.89" length="8.00" width="3.50" shape="665.09,801.91 665.94,793.96"/>
    </edge>
    <edge id=":4460354179_4" function="internal">
        <lane id=":4460354179_4_0" index="0" speed="5.18" length="5.17" width="4.00" shape="665.09,801.91 665.42,800.17 665.97,798.95 666.75,798.26 667.76,798.09"/>
    </edge>
    <edge id=":4465824360_0" function="internal">
        <lane id=":4465824360_0_0" index="0" speed="13.89" length="8.00" width="3.50" shape="683.84,593.62 684.70,585.67"/>
        <lane id=":4465824360_0_1" index="1" speed="13.89" length="8.00" width="3.50" shape="687.32,593.99 688.18,586.04"/>
    </edge>
    <edge id=":4465824360_2" function="internal">
        <lane id=":4465824360_2_0" index="0" speed="5.11" length="5.09" width="4.00" shape="687.32,593.99 687.65,592.28 688.20,591.09 688.98,590.42 689.98,590.29"/>
    </edge>
    <edge id=":4465824361_0" function="internal">
        <lane id=":4465824361_0_0" index="0" speed="5.15" length="5.13" width="4.00" shape="697.62,587.13 697.57,588.89 697.85,590.18 698.47,591.01 699.42,591.37"/>
    </edge>
    <edge id=":4465824361_1" function="internal">
        <lane id=":4465824361_1_0" index="0" speed="13.89" length="8.00" width="3.50" shape="697.62,587.13 696.77,595.08"/>
        <lane id=":4465824361_1_1" index="1" speed="13.89" length="8.00" width="3.50" shape="694.14,586.76 693.29,594.71"/>
    </edge>
    <edge id=":4465824361_3" function="internal">
        <lane id=":4465824361_3_0" index="0" speed="13.89" length="8.00" width="4.00" shape="691.48,590.46 699.42,591.37"/>
    </edge>
    <edge id=":4465824361_4" function="internal">
        <lane id=":4465824361_4_0" index="0" speed="5.22" length="5.15" width="3.50" shape="691.48,590.46 692.43,590.82 693.05,591.65 693.33,592.95 693.29,594.71"/>
    </edge>
    <edge id=":4465824362_0" function="internal">
        <lane id=":4465824362_0_0" index="0" speed="4.37" length="3.92" width="4.00" shape="807.28,603.58 808.36,603.86 808.99,604.41 809.17,605.23 808.90,606.32"/>
    </edge>
    <edge id=":4465824363_0" function="internal">
        <lane id=":4465824363_0_0" index="0" speed="5.69" length="6.43" width="4.00" shape="785.80,807.62 785.86,809.38 786.47,810.70 787.63,811.57 789.34,811.99"/>
    </edge>
    <edge id=":4465824363_1" function="internal">
        <lane id=":4465824363_1_0" index="0" speed="13.89" length="8.00" width="4.00" shape="781.39,811.13 789.34,811.99"/>
    </edge>
    <edge id=":5052888260_0" function="internal">
        <lane id=":5052888260_0_0" index="0" speed="5.59" length="5.50" width="3.50" shape="973.25,830.47 974.29,830.31 975.17,829.60 975.90,828.36 976.47,826.57"/>
    </edge>
    <edge id=":5052888260_1" function="internal">
        <lane id=":5052888260_1_0" index="0" speed="13.89" length="8.01" width="4.00" shape="973.25,830.47 981.20,831.44"/>
    </edge>
    <edge id=":5052888260_2" function="internal">
        <lane id=":5052888260_2_0" index="0" speed="13.89" length="8.00" width="3.50" shape="974.58,834.33 976.47,826.57"/>
        <lane id=":5052888260_2_1" index="1" speed="13.89" length="8.00" width="3.50" shape="977.98,835.17 979.87,827.38"/>
    </edge>
    <edge id=":5052888260_4" function="internal">
        <lane id=":5052888260_4_0" index="0" speed="5.41" length="5.39" width="4.00" shape="977.98,835.17 978.55,833.42 979.28,832.21 980.17,831.56 981.20,831.44"/>
    </edge>
    <edge id=":5052888298_0" function="internal">
        <lane id=":5052888298_0_0" index="0" speed="13.89" length="0.30" width="3.50" shape="551.52,351.53 551.23,351.50"/>
        <lane id=":5052888298_0_1" index="1" speed="13.89" length="0.30" width="3.50" shape="551.90,348.05 551.60,348.02"/>
    </edge>
    <edge id=":5052888300_0" function="internal">
        <lane id=":5052888300_0_0" index="0" speed="13.89" length="0.30" width="3.50" shape="484.00,344.42 483.70,344.39"/>
        <lane id=":5052888300_0_1" index="1" speed="13.89" length="0.30" width="3.50" shape="484.37,340.94 484.07,340.91"/>
    </edge>
    <edge id=":5065485736_0" function="internal">
        <lane id=":5065485736_0_0" index="0" speed="5.74" length="6.48" width="4.00" shape="375.02,765.27 376.79,765.19 378.11,764.57 379.00,763.40 379.44,761.68"/>
    </edge>
    <edge id=":5065485736_1" function="internal">
        <lane id=":5065485736_1_0" index="0" speed="13.89" length="8.00" width="4.00" shape="375.02,765.27 382.98,766.03"/>
    </edge>
    <edge id=":5065485736_2" function="internal">
        <lane id=":5065485736_2_0" index="0" speed="13.89" length="8.00" width="4.00" shape="378.66,769.64 379.44,761.68"/>
    </edge>
    <edge id=":5065485736_3" function="internal">
        <lane id=":5065485736_3_0" index="0" speed="5.68" length="2.06" width="4.00" shape="378.66,769.64 379.06,767.92 379.23,767.68"/>
    </edge>
    <edge id=":5065485736_4" function="internal">
        <lane id=":5065485736_4_0" index="0" speed="5.68" length="4.37" width="4.00" shape="379.23,767.68 379.91,766.75 381.22,766.12 382.98,766.03"/>
    </edge>
    <edge id=":5367297449_0" function="internal">
        <lane id=":5367297449_0_0" index="0" speed="4.65" length="3.84" width="3.50" shape="325.54,328.08 324.49,328.12 323.70,328.49 323.15,329.17 322.85,330.17"/>
    </edge>
    <edge id=":5367297449_1" function="internal">
        <lane id=":5367297449_1_0" index="0" speed="13.89" length="8.00" width="3.50" shape="325.54,328.08 317.58,327.35"/>
        <lane id=":5367297449_1_1" index="1" speed="13.89" length="8.00" width="3.50" shape="325.87,324.59 317.89,323.86"/>
    </edge>
    <edge id=":5367297449_3" function="internal">
        <lane id=":5367297449_3_0" index="0" speed="13.89" length="8.00" width="3.50" shape="323.91,322.17 322.85,330.17"/>
        <lane id=":5367297449_3_1" index="1" speed="13.89" length="8.00" width="3.50" shape="320.43,321.78 319.39,329.64"/>
    </edge>
    <edge id=":5367297449_5" function="internal">
        <lane id=":5367297449_5_0" index="0" speed="4.56" length="0.56" width="3.50" shape="320.43,321.78 320.29,322.32"/>
    </edge>
    <edge id=":5367297449_6" function="internal">
        <lane id=":5367297449_6_0" index="0" speed="4.56" length="3.16" width="3.50" shape="320.29,322.32 320.18,322.77 319.67,323.44 318.91,323.80 317.89,323.86"/>
    </edge>
    <edge id=":5367297456_0" function="internal">
        <lane id=":5367297456_0_0" index="0" speed="13.89" length="8.00" width="4.00" shape="270.39,755.11 262.43,754.30"/>
    </edge>
    <edge id=":5367297456_1" function="internal">
        <lane id=":5367297456_1_0" index="0" speed="5.20" length="5.12" width="3.50" shape="270.39,755.11 269.43,754.77 268.81,753.95 268.51,752.67 268.54,750.91"/>
    </edge>
    <edge id=":5367297456_2" function="internal">
        <lane id=":5367297456_2_0" index="0" speed="5.16" length="5.15" width="4.00" shape="264.29,758.54 264.31,756.77 264.01,755.48 263.39,754.65 262.43,754.30"/>
    </edge>
    <edge id=":5367297456_3" function="internal">
        <lane id=":5367297456_3_0" index="0" speed="13.89" length="8.00" width="3.50" shape="264.29,758.54 265.05,750.57"/>
        <lane id=":5367297456_3_1" index="1" speed="13.89" length="8.00" width="3.50" shape="267.77,758.87 268.54,750.91"/>
    </edge>
    <edge id=":5367297457_0" function="internal">
        <lane id=":5367297457_0_0" index="0" speed="5.17" length="5.09" width="3.50" shape="282.26,549.48 283.26,549.34 284.03,548.67 284.57,547.48 284.88,545.76"/>
    </edge>
    <edge id=":5367297457_1" function="internal">
        <lane id=":5367297457_1_0" index="0" speed="13.89" length="8.00" width="4.00" shape="282.26,549.48 290.22,550.30"/>
    </edge>
    <edge id=":5367297457_2" function="internal">
        <lane id=":5367297457_2_0" index="0" speed="13.89" length="8.00" width="3.50" shape="284.11,553.72 284.88,545.76"/>
        <lane id=":5367297457_2_1" index="1" speed="13.89" length="8.00" width="3.50" shape="287.59,554.06 288.36,546.09"/>
    </edge>
    <edge id=":5367297457_4" function="internal">
        <lane id=":5367297457_4_0" index="0" speed="5.13" length="5.12" width="4.00" shape="287.59,554.06 287.90,552.33 288.44,551.13 289.21,550.45 290.22,550.30"/>
    </edge>
    <edge id=":5367297458_0" function="internal">
        <lane id=":5367297458_0_0" index="0" speed="13.89" length="9.88" width="3.50" shape="311.77,326.83 302.49,325.90"/>
        <lane id=":5367297458_0_1" index="1" speed="13.89" length="9.88" width="3.50" shape="312.66,323.40 302.28,322.35"/>
    </edge>
    <edge id=":5367297458_2" function="internal">
        <lane id=":5367297458_2_0" index="0" speed="5.46" length="3.24" width="3.50" shape="312.66,323.40 310.42,323.06 309.51,322.73"/>
    </edge>
    <edge id=":5367297458_3" function="internal">
        <lane id=":5367297458_3_0" index="0" speed="4.15" length="3.04" width="3.50" shape="312.66,323.40 311.95,323.20 311.47,322.76 311.24,322.08 311.25,321.16"/>
    </edge>
    <edge id=":5367297458_7" function="internal">
        <lane id=":5367297458_7_0" index="0" speed="5.46" length="2.89" width="3.50" shape="309.51,322.73 308.86,322.50 307.98,321.72 307.78,320.71"/>
    </edge>
    <edge id=":5367297458_4" function="internal">
        <lane id=":5367297458_4_0" index="0" speed="4.74" length="4.17" width="3.50" shape="305.12,328.48 305.04,327.47 304.58,326.71 303.73,326.18 302.49,325.90"/>
    </edge>
    <edge id=":5367297458_5" function="internal">
        <lane id=":5367297458_5_0" index="0" speed="13.89" length="8.27" width="3.50" shape="305.12,328.48 305.10,326.04 304.68,324.37 304.28,322.70 304.31,320.27"/>
        <lane id=":5367297458_5_1" index="1" speed="13.89" length="8.27" width="3.50" shape="308.60,328.84 308.58,326.43 308.16,324.77 307.75,323.12 307.78,320.71"/>
    </edge>
    <edge id=":5367297459_0" function="internal">
        <lane id=":5367297459_0_0" index="0" speed="4.25" length="3.21" width="3.50" shape="303.59,310.91 304.39,310.84 304.98,310.49 305.37,309.84 305.56,308.90"/>
    </edge>
    <edge id=":5367297459_1" function="internal">
        <lane id=":5367297459_1_0" index="0" speed="6.47" length="8.93" width="3.50" shape="303.25,314.39 305.62,314.25 307.38,313.33 308.52,311.64 309.05,309.16"/>
    </edge>
    <edge id=":5367297459_2" function="internal">
        <lane id=":5367297459_2_0" index="0" speed="13.89" length="11.27" width="3.50" shape="303.25,314.39 306.50,314.15 308.68,313.16 310.85,312.19 314.09,312.03"/>
    </edge>
    <edge id=":5367297459_3" function="internal">
        <lane id=":5367297459_3_0" index="0" speed="13.89" length="8.00" width="3.50" shape="304.77,316.67 305.56,308.90"/>
        <lane id=":5367297459_3_1" index="1" speed="13.89" length="8.00" width="3.50" shape="308.24,317.12 309.05,309.16"/>
        <lane id=":5367297459_3_2" index="2" speed="13.89" length="8.00" width="3.50" shape="311.71,317.56 312.54,309.42"/>
    </edge>
    <edge id=":5367297459_6" function="internal">
        <lane id=":5367297459_6_0" index="0" speed="4.31" length="3.26" width="3.50" shape="311.71,317.56 311.94,316.58 312.36,315.92 312.96,315.56 313.74,315.51"/>
    </edge>
    <edge id=":5367297510_0" function="internal">
        <lane id=":5367297510_0_0" index="0" speed="11.36" length="9.94" width="4.00" shape="340.96,150.13 340.93,153.05 341.24,155.09 342.13,156.93 343.86,159.27"/>
    </edge>
    <edge id=":5367297510_1" function="internal">
        <lane id=":5367297510_1_0" index="0" speed="13.89" length="11.14" width="3.50" shape="340.96,150.13 340.10,161.41"/>
        <lane id=":5367297510_1_1" index="1" speed="13.89" length="11.14" width="3.50" shape="337.47,149.93 336.61,161.12"/>
        <lane id=":5367297510_1_2" index="2" speed="13.89" length="11.14" width="3.50" shape="333.96,149.98 333.12,160.84"/>
    </edge>
    <edge id=":5367297517_0" function="internal">
        <lane id=":5367297517_0_0" index="0" speed="5.22" length="4.99" width="3.50" shape="339.74,107.32 339.06,107.77 338.71,108.68 338.68,110.04 338.97,111.85"/>
    </edge>
    <edge id=":5367297517_1" function="internal">
        <lane id=":5367297517_1_0" index="0" speed="13.89" length="10.57" width="4.00" shape="339.74,107.32 329.61,110.32"/>
    </edge>
    <edge id=":5367297517_2" function="internal">
        <lane id=":5367297517_2_0" index="0" speed="13.89" length="8.00" width="3.50" shape="337.09,103.98 338.97,111.85"/>
        <lane id=":5367297517_2_1" index="1" speed="13.89" length="8.00" width="3.50" shape="333.70,104.84 335.56,112.62"/>
        <lane id=":5367297517_2_2" index="2" speed="13.89" length="8.00" width="3.50" shape="330.30,105.70 332.14,113.39"/>
    </edge>
    <edge id=":5367297517_5" function="internal">
        <lane id=":5367297517_5_0" index="0" speed="5.20" length="5.07" width="4.00" shape="330.30,105.70 330.65,107.52 330.65,108.89 330.30,109.83 329.61,110.32"/>
    </edge>
    <edge id=":5367297626_0" function="internal">
        <lane id=":5367297626_0_0" index="0" speed="4.50" length="3.52" width="3.50" shape="328.65,311.48 328.63,312.60 328.87,313.44 329.35,314.00 330.09,314.29"/>
    </edge>
    <edge id=":5367297626_1" function="internal">
        <lane id=":5367297626_1_0" index="0" speed="13.89" length="8.00" width="3.50" shape="325.18,311.08 324.27,319.02"/>
        <lane id=":5367297626_1_1" index="1" speed="13.89" length="8.00" width="3.50" shape="321.70,310.68 320.79,318.63"/>
    </edge>
    <edge id=":5367297626_3" function="internal">
        <lane id=":5367297626_3_0" index="0" speed="13.89" length="12.39" width="3.50" shape="316.23,312.28 330.09,314.29"/>
        <lane id=":5367297626_3_1" index="1" speed="13.89" length="12.39" width="3.50" shape="317.30,315.93 327.96,317.47"/>
    </edge>
    <edge id=":5367297626_5" function="internal">
        <lane id=":5367297626_5_0" index="0" speed="5.06" length="4.93" width="3.50" shape="317.30,315.93 318.92,316.27 320.04,316.83 320.67,317.62 320.79,318.63"/>
    </edge>
    <edge id=":7525033400_0" function="internal">
        <lane id=":7525033400_0_0" index="0" speed="5.17" length="5.09" width="3.50" shape="646.08,927.78 647.08,927.65 647.86,926.98 648.41,925.79 648.73,924.08"/>
    </edge>
    <edge id=":7525033400_1" function="internal">
        <lane id=":7525033400_1_0" index="0" speed="13.89" length="8.00" width="3.50" shape="647.92,932.05 648.73,924.08"/>
        <lane id=":7525033400_1_1" index="1" speed="13.89" length="8.00" width="3.50" shape="651.41,932.39 652.21,924.44"/>
    </edge>
    <edge id=":7525033408_0" function="internal">
        <lane id=":7525033408_0_0" index="0" speed="13.89" length="8.00" width="4.00" shape="577.76,787.73 585.70,788.68"/>
    </edge>
    <edge id=":7525033408_1" function="internal">
        <lane id=":7525033408_1_0" index="0" speed="5.72" length="6.46" width="4.00" shape="577.76,787.73 579.46,788.19 580.61,789.09 581.21,790.42 581.25,792.19"/>
    </edge>
    <edge id=":7793066913_0" function="internal">
        <lane id=":7793066913_0_0" index="0" speed="13.89" length="0.30" width="4.00" shape="493.90,777.36 494.20,777.40"/>
    </edge>
    <edge id=":7793066914_0" function="internal">
        <lane id=":7793066914_0_0" index="0" speed="13.89" length="0.25" width="4.00" shape="463.10,773.54 463.35,773.57"/>
    </edge>
    <edge id=":7990460414_0" function="internal">
        <lane id=":7990460414_0_0" index="0" speed="10.49" length="9.79" width="4.00" shape="317.18,197.78 317.36,194.93 317.05,192.94 316.10,191.12 314.37,188.83"/>
    </edge>
    <edge id=":7990460414_1" function="internal">
        <lane id=":7990460414_1_0" index="0" speed="13.89" length="11.20" width="3.50" shape="317.18,197.78 318.08,186.73"/>
        <lane id=":7990460414_1_1" index="1" speed="13.89" length="11.20" width="3.50" shape="320.65,198.28 321.57,187.00"/>
        <lane id=":7990460414_1_2" index="2" speed="13.89" length="11.20" width="3.50" shape="324.15,198.44 325.06,187.27"/>
    </edge>
    <edge id=":8170600424_0" function="internal">