<?xml version='1.0' encoding='UTF-8'?>
<edges>
  <edge id="128898260" from="1423186449" to="1423186457" numLanes="1" width="4.0" shape="87.583841,-342.147088 50.564557,-345.873651 "/>
  <edge id="355211904" from="Custom44" to="1423186442" numLanes="1" width="4.0" shape="279.047864,-455.731409 275.742077,-426.991216 274.209997,-413.742503 269.195236,-357.866625 268.721351,-352.924268 266.461202,-328.819302 "/>
  <edge id="-355211904" to="Custom44" from="1423186442" numLanes="1" width="4.0" shape="266.461202,-328.819302 268.721351,-352.924268 269.195236,-357.866625 274.209997,-413.742503 275.742077,-426.991216 279.047864,-455.731409 "/>
  <edge id="372694536" from="3762455101" to="3762455092" numLanes="2" width="3.5" shape="7.075635,-119.718264 75.065506,-113.505287 "/>
  <edge id="449635432" from="4465824362" to="4465824363" numLanes="1" width="4.0" shape="330.552445,147.387819 329.117148,150.912277 329.065075,151.055550 329.024065,151.202373 327.738386,156.590073 327.693914,156.853053 326.645769,167.216539 306.317419,351.668626 "/>
  <edge id="517874902" from="5052888298" to="5052888300" numLanes="2" width="3.5" shape="74.438099,-109.436829 6.906577,-116.544947 "/>
  <edge id="538444264" from="3762455092" to="3099707616" numLanes="2" width="3.5" shape="75.027748,-113.508944 205.269438,-100.182479 205.291122,-100.180329 209.415400,-99.784257 233.020384,-97.073216 "/>
  <edge id="556386784" from="5367297459" to="7990460414" numLanes="3" width="3.5" shape="-163.212606,-146.174085 -162.988791,-149.124638 -162.198670,-157.080566 -151.621095,-256.903120 "/>
  <edge id="804514232" from="7525033408" to="7525033400" numLanes="1" width="4.0" shape="101.768423,336.216739 86.876414,459.577875 86.862160,459.792137 86.870960,460.006692 86.902712,460.219067 87.378096,462.538928 87.430054,462.739181 87.502421,462.932995 87.594423,463.118296 87.705074,463.293102 87.833191,463.455542 87.977404,463.603878 88.136169,463.736522 88.307787,463.852056 88.490421,463.949244 90.635666,464.952074 90.834798,465.032436 91.041398,465.090985 91.253084,465.127047 168.355668,474.035086 "/>
  <edge id="834863014" from="7793066914" to="7793066913" numLanes="1" width="4.0" shape="-14.512841,319.809254 16.313407,323.635150 "/>
  <edge id="857018011" from="7990460414" to="1423186485" numLanes="1" width="4.0" shape="-161.552955,-268.140804 -163.883510,-271.096361 -165.435453,-273.135465 -165.451938,-273.156824 -168.723095,-277.336587 -172.779742,-284.774862 -174.175460,-290.817050 -174.522596,-299.345287 -173.203828,-307.137992 -170.574864,-316.183487 -166.290420,-324.744965 -161.667610,-331.397732 -160.296654,-333.359847 -159.766241,-334.019568 "/>
  <edge id="863731498" from="1423186485" to="Custom45" numLanes="3" width="3.5" shape="-151.087120,-348.474849 -151.848432,-351.071917 -151.855860,-351.097025 -153.859018,-357.806268 -153.928603,-358.022198 -155.781464,-363.372952 -155.972116,-363.847420 -158.226089,-368.751817 -158.446957,-369.179551 -160.771594,-373.215992 -161.132168,-373.760659 -171.960404,-388.092955 -174.862105,-391.973485 -174.948661,-392.086033 -185.941955,-405.987394 "/>
  <edge id="863731506" from="Custom46" to="5367297459" numLanes="2" width="3.5" shape="-365.003059,-158.496826 -350.444708,-157.346960 -260.006029,-148.087246 -191.108910,-141.033100 -191.003134,-141.023889 -185.384106,-140.620348 -178.088337,-139.948130 -174.405480,-139.600665 "/>
  <edge id="864097767" from="1423186442" to="3099707616" numLanes="1" width="4.0" shape="265.086195,-314.887156 263.175280,-296.447045 262.704925,-291.866612 243.826034,-126.616730 243.454206,-123.161983 241.499826,-106.733738 241.139668,-103.689992 "/>
  <edge id="-864097767" to="1423186442" from="3099707616" numLanes="1" width="4.0" shape="241.139668,-103.689992 241.499826,-106.733738 243.454206,-123.161983 243.826034,-126.616730 262.704925,-291.866612 263.175280,-296.447045 265.086195,-314.887156 "/>
  <edge id="878209891" from="8170600528" to="8170600424" numLanes="1" width="4.0" shape="-113.387769,536.753189 -46.864465,542.268127 -46.651557,542.274397 -46.439189,542.257988 -46.229771,542.219087 -43.910201,541.658970 -43.716150,541.601580 -43.528892,541.524875 -43.350343,541.429640 -43.182332,541.316851 -43.026578,541.187661 -42.884676,541.043393 -42.758079,540.885525 -42.648082,540.715672 -42.555812,540.535573 -41.576589,538.359508 -41.499649,538.160889 -41.444268,537.955214 -41.411075,537.744816 -29.179911,419.646221 -29.169279,419.434104 -29.181201,419.222057 -29.215541,419.012469 -29.987493,415.486360 -30.036376,415.304520 -30.102143,415.128083 -30.184212,414.958613 -30.281854,414.797612 -30.394205,414.646507 -94.386600,336.546547 "/>
  <edge id="878209899" from="5065485736" to="3088573907" numLanes="1" width="4.0" shape="-96.068227,306.171666 -77.081541,134.656934 -77.080732,134.649498 -74.316318,108.793473 -74.304985,108.578875 -74.316742,108.364301 -74.351454,108.152227 -74.858588,105.840887 -74.907039,105.660682 -74.972075,105.485778 -75.053128,105.317697 -75.149494,105.157901 -75.260333,105.007782 -75.384682,104.868647 -75.521456,104.741707 -75.669466,104.628067 -75.827423,104.528716 -75.993952,104.444519 -78.153214,103.476497 -78.353746,103.399248 -78.561409,103.343961 -78.773805,103.311274 -162.795748,94.970148 -175.187840,93.743007 "/>
  <edge id="917044197" from="5367297510" to="8517653110" numLanes="1" width="4.0" shape="-135.196021,-295.219812 -133.448118,-293.017046 -131.411219,-289.960111 -126.405299,-282.421122 -130.776548,-217.940033 -136.425494,-213.890210 -136.428095,-213.888342 -138.946453,-212.076779 -140.768009,-210.823586 "/>
  <edge id="919204479" from="5367297458" to="5367297459" numLanes="3" width="3.5" shape="-164.505247,-134.354748 -164.047323,-137.951640 "/>
  <edge id="919204489" from="8537105765" to="3564782279" numLanes="1" width="4.0" shape="1.044888,-352.510137 1.379117,-355.717294 1.382116,-355.748428 1.620627,-358.445634 1.628045,-358.659529 1.612564,-358.872993 1.574362,-359.083580 1.025849,-361.395055 0.968360,-361.591817 0.891034,-361.781661 0.794681,-361.962592 0.680314,-362.132711 0.549135,-362.290229 0.402521,-362.433493 0.242013,-362.560997 0.069297,-362.671401 -0.113812,-362.763547 -2.287864,-363.721296 -2.488062,-363.796977 -2.695200,-363.850831 -2.906907,-363.882242 -88.785636,-371.958397 -88.967712,-371.967176 -89.149830,-371.959341 -89.330478,-371.934957 -94.656662,-370.967079 -94.864705,-370.917655 -95.066282,-370.846302 -95.259088,-370.753836 -95.440921,-370.641313 -98.108735,-368.786129 -98.249581,-368.678626 -98.380360,-368.559079 -101.466293,-365.476393 -101.619942,-365.304069 -101.752709,-365.115187 -102.954637,-363.176268 -102.955901,-363.174226 -104.275536,-361.039706 "/>
  <edge id="919204491" from="5367297517" to="1423186485" numLanes="1" width="4.0" shape="-148.486802,-347.316163 -150.595862,-346.649397 "/>
  <edge id="919204493" from="7990460414" to="1423186485" numLanes="3" width="3.5" shape="-150.688211,-268.320110 -147.411707,-310.119457 -147.397061,-310.408097 -147.221774,-317.972054 -147.222857,-318.255440 -147.427889,-324.906908 -147.438205,-325.111652 -147.848736,-330.978055 -147.860179,-331.115589 -148.119725,-333.806527 "/>
  <edge id="919204495" from="Custom47" to="1423186442" numLanes="1" width="4.0" shape="518.212053,-149.349233 513.415101,-168.265673 507.403070,-192.803597 500.545007,-213.219751 490.814341,-232.557220 477.341518,-252.092936 474.219058,-256.627263 455.385929,-276.832201 439.814878,-286.858930 419.078779,-296.701950 404.365640,-301.747260 390.253999,-305.072017 366.979972,-310.015285 346.048931,-312.702911 294.759765,-318.557965 290.145709,-319.080862 272.762858,-321.058564 "/>
  <edge id="-919204495" to="Custom47" from="1423186442" numLanes="1" width="4.0" shape="272.762858,-321.058564 290.145709,-319.080862 294.759765,-318.557965 346.048931,-312.702911 366.979972,-310.015285 390.253999,-305.072017 404.365640,-301.747260 419.078779,-296.701950 439.814878,-286.858930 455.385929,-276.832201 474.219058,-256.627263 477.341518,-252.092936 490.814341,-232.557220 500.545007,-213.219751 507.403070,-192.803597 513.415101,-168.265673 518.212053,-149.349233 "/>
  <edge id="919204497" from="8537105769" to="Custom48" numLanes="1" width="4.0" shape="188.374498,-325.663240 188.099459,-322.077636 187.208868,-312.178719 "/>
  <edge id="919204503" from="Custom49" to="5367297517" numLanes="3" width="3.5" shape="-184.637731,-406.855891 -173.213578,-394.243661 -162.505179,-379.504077 -159.427616,-375.015126 -156.603486,-370.090408 -153.759205,-364.135823 -151.448958,-358.347774 -149.357132,-351.447393 -148.886209,-349.595384 "/>
  <edge id="957861533" from="8863086131" to="8863086029" numLanes="1" width="4.0" shape="-269.527370,-137.103440 -269.763290,-133.945658 -272.630606,-111.684803 -275.758918,-100.797128 -281.771676,-86.977407 -292.532980,-65.551172 -326.010407,-20.460483 -354.895183,5.858328 -370.707456,16.696334 "/>
  <edge id="304334757_1" from="Custom50" to="8863086029" numLanes="1" width="4.0" shape="-428.927989,-66.646269 -420.526568,-52.548216 -420.508913,-52.519154 -376.682322,18.259552 "/>
  <edge id="350712292_1" from="1423186457" to="8537105765" numLanes="1" width="4.0" shape="50.551158,-345.874954 2.810464,-350.356394 "/>
  <edge id="449635431_1" from="4465824360" to="4465824361" numLanes="1" width="4.0" shape="212.259881,136.544857 213.752317,136.717092 "/>
  <edge id="449635431_2" from="4465824361" to="4465824362" numLanes="1" width="4.0" shape="221.704936,137.626012 332.179818,150.129457 "/>
  <edge id="556386774_2" from="3089013524" to="Custom51" numLanes="2" width="3.5" shape="-203.056444,303.802789 -204.425548,318.138885 -214.445132,423.257429 -214.446272,423.269611 -225.701203,545.885084 "/>
  <edge id="494180266_1" from="3089013524" to="5367297456" numLanes="1" width="4.0" shape="-202.978512,297.774042 -206.908951,297.389900 "/>
  <edge id="494180266_2" from="5367297456" to="Custom52" numLanes="1" width="4.0" shape="-214.849220,296.577395 -228.247158,295.144839 -321.491916,285.191226 -360.273551,280.115696 -360.354488,280.106775 -448.911032,272.166979 -477.315108,269.624200 "/>
  <edge id="768135268_1" from="Custom53" to="5367297456" numLanes="2" width="3.5" shape="-230.669144,545.811016 -219.368234,422.772269 -209.303351,317.202507 -207.979592,303.305188 "/>
  <edge id="499001294_1" from="5052888300" to="5367297449" numLanes="2" width="3.5" shape="6.903674,-116.545251 -131.803139,-131.028078 -131.821082,-131.029905 -136.978399,-131.541545 -137.017166,-131.545173 -143.392781,-132.106127 -151.456042,-132.880689 "/>
  <edge id="499001294_2" from="5367297449" to="5367297458" numLanes="2" width="3.5" shape="-159.450344,-133.616216 -164.677949,-134.076010 "/>
  <edge id="556386774_1" from="5367297626" to="5367297449" numLanes="2" width="3.5" shape="-158.444328,-137.297845 -158.800670,-134.147218 "/>
  <edge id="519489043_1" from="Custom54" to="8170600528" numLanes="1" width="4.0" shape="-123.208301,588.983813 -118.432339,539.146944 -118.154205,538.800627 "/>
  <edge id="834938485_3" from="4460354176" to="4465824361" numLanes="2" width="3.5" shape="237.922029,-83.398608 237.646025,-80.774485 235.615378,-61.635040 214.903296,130.837341 "/>
  <edge id="538444262_2" from="4460354177" to="5052888298" numLanes="2" width="3.5" shape="229.004178,-92.268135 209.139655,-94.783675 209.078437,-94.790881 74.450218,-109.435532 "/>
  <edge id="834936510_2" from="4465824360" to="4460354177" numLanes="2" width="3.5" shape="212.427239,130.501044 232.833840,-57.262737 233.327713,-61.775678 233.330200,-61.799134 235.313125,-81.122129 235.604819,-83.955997 "/>
  <edge id="769849248_1" from="7793066913" to="7525033408" numLanes="1" width="4.0" shape="16.314442,323.635278 100.018303,333.979572 "/>
  <edge id="834936510_1" from="Custom55" to="7525033400" numLanes="2" width="3.5" shape="164.213524,594.573011 175.655492,476.827152 "/>
  <edge id="830707838_1" from="Custom56" to="5052888260" numLanes="2" width="3.5" shape="428.862229,653.002340 459.440244,539.977365 495.827541,405.482082 495.846133,405.410359 502.181374,379.860240 "/>
  <edge id="830707838_2" from="5052888260" to="4460354176" numLanes="2" width="3.5" shape="504.078707,372.055620 510.877699,343.520178 531.562813,263.745914 531.596991,263.601583 534.428714,250.401934 534.454407,250.269835 536.446984,238.858761 536.476002,238.658612 537.754820,227.595633 537.770178,227.427172 538.624965,214.639922 538.632745,214.396646 538.589355,198.952256 538.589209,198.928620 538.456649,185.066793 538.445350,184.817278 537.371927,171.584422 537.359622,171.460240 535.984407,159.719143 535.972148,159.625447 534.366049,148.517624 534.333015,148.326657 531.711496,135.325930 531.693990,135.244165 528.360353,120.534686 528.292215,120.279215 524.592806,108.253127 524.524898,108.053898 519.992158,95.959429 519.933271,95.812503 513.415995,80.559759 513.311110,80.336424 504.976529,64.102565 504.853765,63.883213 486.329169,33.406204 486.162647,33.156953 478.034394,22.051419 477.877365,21.852416 466.063856,7.947746 465.939117,7.808629 442.156779,-17.331143 441.897496,-17.578529 431.732876,-26.327732 431.521821,-26.495684 419.131451,-35.598537 419.063369,-35.647312 404.116227,-46.087243 403.944725,-46.199700 394.338363,-52.103768 394.147220,-52.213113 382.067830,-58.627569 381.886328,-58.717320 369.858795,-64.237747 369.832529,-64.249672 357.449214,-69.810299 357.330200,-69.861119 347.497509,-73.846463 347.313447,-73.915117 337.873747,-77.137325 337.732930,-77.182097 328.079203,-80.028481 327.911809,-80.073363 317.176289,-82.668715 316.913954,-82.721610 299.318253,-85.574242 299.094636,-85.603137 277.924074,-87.647964 273.591535,-88.071817 273.519685,-88.078100 246.078341,-90.192862 "/>
  <edge id="769849248_2" from="4465824363" to="5052888260" numLanes="1" width="4.0" shape="311.647335,358.253325 485.263977,375.688737 495.554568,376.723865 "/>
  <edge id="832096602_1" from="3099707616" to="3076808548" numLanes="2" width="3.5" shape="247.283071,-95.532910 273.994286,-92.838794 303.423941,-88.859767 310.672195,-87.645007 319.715900,-85.712381 328.077810,-83.203012 337.479635,-79.708595 347.740293,-75.695920 347.852459,-75.654251 362.916865,-70.349155 371.637462,-66.818740 382.004645,-62.137281 394.215844,-55.938620 407.235900,-47.002584 407.274749,-46.976303 420.427305,-38.206262 434.354581,-26.808820 434.393018,-26.777815 446.640048,-17.040660 469.346639,5.037148 481.404771,18.882505 490.059644,30.200793 511.336459,66.978158 517.870818,81.569757 523.833897,96.737353 529.587374,113.362196 535.345816,134.776213 539.416120,152.253074 541.296819,164.935247 542.731470,176.954946 542.813648,188.181061 542.156409,198.199465 542.150253,198.331331 541.682828,215.146896 540.565318,229.545634 539.400838,239.932370 537.734819,250.735683 535.527334,261.291556 514.995641,343.803344 514.993433,343.812267 508.062351,371.982081 "/>
  <edge id="832096602_2" from="3076808548" to="Custom57" numLanes="2" width="3.5" shape="506.147873,379.745942 499.583932,406.306566 486.490436,455.358341 464.011867,539.819571 432.907576,650.671495 "/>
  <edge id="769849248_4" from="5052888260" to="3076808548" numLanes="1" width="4.0" shape="503.416880,377.691120 506.258808,378.105052 "/>
  <edge id="769849248_5" from="3076808548" to="Custom58" numLanes="1" width="4.0" shape="514.255252,379.139239 525.223092,380.379450 599.391313,388.772511 599.661663,388.784678 628.376179,388.131822 628.546461,388.120669 651.875702,385.589346 652.062963,385.559992 682.436096,379.311593 682.677917,379.245816 715.962479,367.909093 716.122591,367.846762 716.276762,367.770919 741.688593,353.883554 741.816532,353.807318 764.636577,339.030935 764.819938,338.896836 815.706351,297.046058 "/>
  <edge id="834863015_1" from="3089013524" to="5065485736" numLanes="1" width="4.0" shape="-195.404121,302.530994 -182.424887,303.791728 -102.670678,311.531601 "/>
  <edge id="834863015_2" from="5065485736" to="7793066914" numLanes="1" width="4.0" shape="-94.700357,312.291983 -14.453204,319.815749 "/>
  <edge id="863731500_1" from="5367297517" to="5367297510" numLanes="3" width="3.5" shape="-147.057853,-341.958969 -146.895572,-341.236673 -146.001648,-337.266686 -144.981441,-329.961437 -144.524751,-321.111133 -145.114314,-311.114226 -145.120931,-310.966789 -145.275151,-305.960220 "/>
  <edge id="863731500_2" from="5367297510" to="8537113900" numLanes="3" width="3.5" shape="-146.118403,-295.038521 -151.041596,-235.256933 "/>
  <edge id="519489043_2" from="8170600528" to="8170600424" numLanes="1" width="4.0" shape="-114.883528,530.609492 -98.958448,339.541491 "/>
  <edge id="519489043_3" from="8170600424" to="5065485736" numLanes="1" width="4.0" shape="-98.274990,331.342005 -96.835513,314.079689 "/>
  <edge id="556386774_3" from="5367297449" to="3088573907" numLanes="2" width="3.5" shape="-159.835459,-126.352631 -160.403665,-122.627033 -160.407899,-122.598478 -161.735803,-113.382344 -161.753509,-113.238385 -180.430261,69.853421 -180.432252,69.873510 -182.466415,91.022377 "/>
  <edge id="556386774_4" from="3088573907" to="3089013524" numLanes="2" width="3.5" shape="-183.234896,98.982920 -184.675790,113.854469 -190.908282,178.254679 -200.556404,277.948516 -202.289848,295.834676 "/>
  <edge id="919204486_1" from="8537113900" to="8517653110" numLanes="4" width="3.5" shape="-152.949771,-233.406119 -154.571288,-213.675533 "/>
  <edge id="919204486_2" from="8517653110" to="5367297626" numLanes="4" width="3.5" shape="-155.521372,-202.375109 -159.511669,-161.489151 -159.989426,-156.830595 -160.002041,-156.694502 -160.362473,-152.344654 -160.684106,-148.463047 -161.009382,-145.659161 "/>
  <edge id="917044200_1" from="5367297459" to="5367297626" numLanes="2" width="3.5" shape="-163.954099,-138.483656 -161.883329,-138.235817 "/>
  <edge id="917044200_2" from="5367297626" to="3762455101" numLanes="2" width="3.5" shape="-148.494240,-136.304996 -143.426812,-135.443470 -143.204004,-135.412918 -136.745527,-134.737915 7.030596,-119.722674 "/>
  <edge id="917044210_1" from="5367297458" to="8863086131" numLanes="2" width="3.5" shape="-175.013213,-135.120363 -178.491547,-135.517748 -185.972499,-136.380701 -186.027299,-136.386585 -262.908263,-144.030400 "/>
  <edge id="917044210_2" from="8863086131" to="Custom59" numLanes="2" width="3.5" shape="-270.868984,-144.821918 -351.306780,-152.819992 -351.346661,-152.823727 -367.115006,-154.209560 "/>
  <edge id="919204488_1" from="1423186442" to="8537105769" numLanes="1" width="4.0" shape="258.844360,-322.565060 240.908461,-324.407211 236.706611,-324.843460 194.656532,-329.126544 "/>
  <edge id="-919204488_1" to="1423186442" from="8537105769" numLanes="1" width="4.0" shape="194.656532,-329.126544 236.706611,-324.843460 240.908461,-324.407211 258.844360,-322.565060 "/>
  <edge id="919204488_2" from="8537105769" to="1423186449" numLanes="1" width="4.0" shape="186.698126,-329.941258 89.373243,-339.954640 "/>
  <edge id="-919204488_2" to="8537105769" from="1423186449" numLanes="1" width="4.0" shape="89.373243,-339.954640 186.698126,-329.941258 "/>
  <edge id="350712292_2" from="8537105765" to="3564782279" numLanes="1" width="4.0" shape="-5.156134,-351.101480 -9.268371,-351.484667 -82.276976,-358.790483 -82.356911,-358.796866 -94.062419,-359.495793 -94.355061,-359.491815 -100.866310,-358.925037 "/>
  <edge id="350712292_3" from="3564782279" to="5367297517" numLanes="1" width="4.0" shape="-106.303074,-358.327012 -116.190920,-356.560579 -116.361459,-356.522356 -128.869319,-353.138755 -128.948102,-353.115698 -132.497649,-351.997276 -134.382186,-351.424726 -138.286229,-350.342557 "/>
  <edge id="304334757_2" from="8863086029" to="5367297457" numLanes="1" width="4.0" shape="-372.471152,25.061231 -344.950078,69.516905 -342.784585,74.516876 -342.342889,78.410005 -342.311920,78.600427 -342.262748,78.786979 -342.195831,78.967925 -342.111791,79.141582 -342.011410,79.306334 -341.895622,79.460648 -341.765505,79.603088 -341.622269,79.732328 -341.467248,79.847166 -341.301883,79.946534 -341.127713,80.029507 -340.946360,80.095313 -340.759509,80.143339 -340.568901,80.173138 -330.008031,81.305718 -209.102430,94.275329 -195.448405,95.739206 "/>
  <edge id="304334757_3" from="5367297457" to="3088573907" numLanes="1" width="4.0" shape="-187.471462,96.556536 -183.541002,96.940604 "/>
  <edge id="768135268_2" from="5367297456" to="5367297457" numLanes="2" width="3.5" shape="-207.215588,295.346974 -205.463860,277.241429 -200.636640,227.387231 -189.600140,113.405278 -188.159045,98.495166 "/>
  <edge id="768135268_3" from="5367297457" to="5367297458" numLanes="2" width="3.5" shape="-187.390674,90.530937 -185.319960,69.028978 -185.317867,69.006479 -183.501194,48.774332 -169.333801,-109.006867 -168.527529,-113.905405 -168.501030,-114.100496 -167.506931,-123.366806 -167.506151,-123.374152 -167.155846,-126.705742 "/>
  <edge id="834938485_2" from="4465824361" to="3089013515" numLanes="2" width="3.5" shape="214.053322,138.797884 192.897692,338.499501 "/>
  <edge id="834938485_4" from="3089013515" to="Custom60" numLanes="2" width="3.5" shape="192.070745,346.472022 166.806211,595.349218 "/>
  <edge id="769849248_6" from="3089013515" to="4465824363" numLanes="1" width="4.0" shape="199.698952,345.294736 303.662901,357.388077 "/>
  <edge id="834936510_4" from="7525033400" to="4460354179" numLanes="2" width="3.5" shape="176.457852,468.895294 189.341140,346.362485 "/>
  <edge id="834936510_5" from="4460354179" to="4465824360" numLanes="2" width="3.5" shape="190.184115,338.413320 211.570322,138.448988 "/>
  <edge id="769849248_3" from="7525033408" to="4460354179" numLanes="1" width="4.0" shape="107.975835,334.933572 182.074485,343.543398 "/>
  <edge id="769849248_7" from="4460354179" to="3089013515" numLanes="1" width="4.0" shape="190.093661,344.351934 191.800987,344.497916 "/>
</edges>
